
---------- Begin Simulation Statistics ----------
final_tick                                   36937000                       # Number of ticks from beginning of simulation (restored from checkpoints and never reset)
host_inst_rate                                 112726                       # Simulator instruction rate (inst/s)
host_mem_usage                                 645448                       # Number of bytes of host memory used
host_op_rate                                   132935                       # Simulator op (including micro ops) rate (op/s)
host_seconds                                     0.15                       # Real time elapsed on the host
host_tick_rate                              247328978                       # Simulator tick rate (ticks/s)
sim_freq                                 1000000000000                       # Frequency of simulated ticks
sim_insts                                       16823                       # Number of instructions simulated
sim_ops                                         19851                       # Number of ops (including micro ops) simulated
sim_seconds                                  0.000037                       # Number of seconds simulated
sim_ticks                                    36937000                       # Number of ticks simulated
system.cpu.committedInsts                       16823                       # Number of instructions committed
system.cpu.committedOps                         19851                       # Number of ops (including micro ops) committed
system.cpu.cpi                               8.782500                       # CPI: cycles per instruction
system.cpu.discardedOps                          2254                       # Number of ops (including micro ops) which were discarded before commit
system.cpu.idleCycles                          118129                       # Total number of cycles that the object has spent stopped
system.cpu.ipc                               0.113863                       # IPC: instructions per cycle
system.cpu.numCycles                           147748                       # number of cpu cycles simulated
system.cpu.numFetchSuspends                         0                       # Number of times Execute suspended instruction fetching
system.cpu.numWorkItemsCompleted                    0                       # number of work items this cpu completed
system.cpu.numWorkItemsStarted                      0                       # number of work items this cpu started
system.cpu.op_class_0::No_OpClass                   0      0.00%      0.00% # Class of committed instruction
system.cpu.op_class_0::IntAlu                   12779     64.37%     64.37% # Class of committed instruction
system.cpu.op_class_0::IntMult                     90      0.45%     64.83% # Class of committed instruction
system.cpu.op_class_0::IntDiv                       0      0.00%     64.83% # Class of committed instruction
system.cpu.op_class_0::FloatAdd                     0      0.00%     64.83% # Class of committed instruction
system.cpu.op_class_0::FloatCmp                     0      0.00%     64.83% # Class of committed instruction
system.cpu.op_class_0::FloatCvt                     0      0.00%     64.83% # Class of committed instruction
system.cpu.op_class_0::FloatMult                    0      0.00%     64.83% # Class of committed instruction
system.cpu.op_class_0::FloatMultAcc                 0      0.00%     64.83% # Class of committed instruction
system.cpu.op_class_0::FloatDiv                     0      0.00%     64.83% # Class of committed instruction
system.cpu.op_class_0::FloatMisc                    0      0.00%     64.83% # Class of committed instruction
system.cpu.op_class_0::FloatSqrt                    0      0.00%     64.83% # Class of committed instruction
system.cpu.op_class_0::SimdAdd                      0      0.00%     64.83% # Class of committed instruction
system.cpu.op_class_0::SimdAddAcc                   0      0.00%     64.83% # Class of committed instruction
system.cpu.op_class_0::SimdAlu                      0      0.00%     64.83% # Class of committed instruction
system.cpu.op_class_0::SimdCmp                      0      0.00%     64.83% # Class of committed instruction
system.cpu.op_class_0::SimdCvt                      0      0.00%     64.83% # Class of committed instruction
system.cpu.op_class_0::SimdMisc                     0      0.00%     64.83% # Class of committed instruction
system.cpu.op_class_0::SimdMult                     0      0.00%     64.83% # Class of committed instruction
system.cpu.op_class_0::SimdMultAcc                  0      0.00%     64.83% # Class of committed instruction
system.cpu.op_class_0::SimdShift                    0      0.00%     64.83% # Class of committed instruction
system.cpu.op_class_0::SimdShiftAcc                 0      0.00%     64.83% # Class of committed instruction
system.cpu.op_class_0::SimdDiv                      0      0.00%     64.83% # Class of committed instruction
system.cpu.op_class_0::SimdSqrt                     0      0.00%     64.83% # Class of committed instruction
system.cpu.op_class_0::SimdFloatAdd               178      0.90%     65.72% # Class of committed instruction
system.cpu.op_class_0::SimdFloatAlu                 0      0.00%     65.72% # Class of committed instruction
system.cpu.op_class_0::SimdFloatCmp                 0      0.00%     65.72% # Class of committed instruction
system.cpu.op_class_0::SimdFloatCvt                29      0.15%     65.87% # Class of committed instruction
system.cpu.op_class_0::SimdFloatDiv                 0      0.00%     65.87% # Class of committed instruction
system.cpu.op_class_0::SimdFloatMisc              205      1.03%     66.90% # Class of committed instruction
system.cpu.op_class_0::SimdFloatMult               89      0.45%     67.35% # Class of committed instruction
system.cpu.op_class_0::SimdFloatMultAcc           163      0.82%     68.17% # Class of committed instruction
system.cpu.op_class_0::SimdFloatSqrt                0      0.00%     68.17% # Class of committed instruction
system.cpu.op_class_0::SimdReduceAdd                0      0.00%     68.17% # Class of committed instruction
system.cpu.op_class_0::SimdReduceAlu                0      0.00%     68.17% # Class of committed instruction
system.cpu.op_class_0::SimdReduceCmp                0      0.00%     68.17% # Class of committed instruction
system.cpu.op_class_0::SimdFloatReduceAdd            0      0.00%     68.17% # Class of committed instruction
system.cpu.op_class_0::SimdFloatReduceCmp            0      0.00%     68.17% # Class of committed instruction
system.cpu.op_class_0::SimdAes                      0      0.00%     68.17% # Class of committed instruction
system.cpu.op_class_0::SimdAesMix                   0      0.00%     68.17% # Class of committed instruction
system.cpu.op_class_0::SimdSha1Hash                 0      0.00%     68.17% # Class of committed instruction
system.cpu.op_class_0::SimdSha1Hash2                0      0.00%     68.17% # Class of committed instruction
system.cpu.op_class_0::SimdSha256Hash               0      0.00%     68.17% # Class of committed instruction
system.cpu.op_class_0::SimdSha256Hash2              0      0.00%     68.17% # Class of committed instruction
system.cpu.op_class_0::SimdShaSigma2                0      0.00%     68.17% # Class of committed instruction
system.cpu.op_class_0::SimdShaSigma3                0      0.00%     68.17% # Class of committed instruction
system.cpu.op_class_0::SimdPredAlu                  0      0.00%     68.17% # Class of committed instruction
system.cpu.op_class_0::MemRead                   3243     16.34%     84.51% # Class of committed instruction
system.cpu.op_class_0::MemWrite                  3075     15.49%    100.00% # Class of committed instruction
system.cpu.op_class_0::FloatMemRead                 0      0.00%    100.00% # Class of committed instruction
system.cpu.op_class_0::FloatMemWrite                0      0.00%    100.00% # Class of committed instruction
system.cpu.op_class_0::IprAccess                    0      0.00%    100.00% # Class of committed instruction
system.cpu.op_class_0::InstPrefetch                 0      0.00%    100.00% # Class of committed instruction
system.cpu.op_class_0::total                    19851                       # Class of committed instruction
system.cpu.tickCycles                           29619                       # Number of cycles that the object actually ticked
system.cpu.workload.numSyscalls                    20                       # Number of system calls
system.membus.snoop_filter.hit_multi_requests            4                       # Number of requests hitting in the snoop filter with multiple (>1) holders of the requested data.
system.membus.snoop_filter.hit_multi_snoops            0                       # Number of snoops hitting in the snoop filter with multiple (>1) holders of the requested data.
system.membus.snoop_filter.hit_single_requests          171                       # Number of requests hitting in the snoop filter with a single holder of the requested data.
system.membus.snoop_filter.hit_single_snoops            0                       # Number of snoops hitting in the snoop filter with a single holder of the requested data.
system.membus.snoop_filter.tot_requests           821                       # Total number of requests made to the snoop filter.
system.membus.snoop_filter.tot_snoops               0                       # Total number of snoops made to the snoop filter.
system.clk_domain.clock                          1000                       # Clock period in ticks
system.cpu.branchPred.lookups                    4784                       # Number of BP lookups
system.cpu.branchPred.condPredicted              3113                       # Number of conditional branches predicted
system.cpu.branchPred.condIncorrect               699                       # Number of conditional branches incorrect
system.cpu.branchPred.BTBLookups                 2144                       # Number of BTB lookups
system.cpu.branchPred.BTBHits                    1185                       # Number of BTB hits
system.cpu.branchPred.BTBHitPct             55.270522                       # BTB Hit Percentage
system.cpu.branchPred.RASUsed                     466                       # Number of times the RAS was used to get a target.
system.cpu.branchPred.RASIncorrect                  1                       # Number of incorrect RAS predictions.
system.cpu.branchPred.indirectLookups             273                       # Number of indirect predictor lookups.
system.cpu.branchPred.indirectHits                 87                       # Number of indirect target hits.
system.cpu.branchPred.indirectMisses              186                       # Number of indirect misses.
system.cpu.branchPred.indirectMispredicted           80                       # Number of mispredicted indirect branches.
system.cpu.dcache.demand_hits::.cpu.data         6144                       # number of demand (read+write) hits
system.cpu.dcache.demand_hits::total             6144                       # number of demand (read+write) hits
system.cpu.dcache.overall_hits::.cpu.data         6163                       # number of overall hits
system.cpu.dcache.overall_hits::total            6163                       # number of overall hits
system.cpu.dcache.demand_misses::.cpu.data          243                       # number of demand (read+write) misses
system.cpu.dcache.demand_misses::total            243                       # number of demand (read+write) misses
system.cpu.dcache.overall_misses::.cpu.data          253                       # number of overall misses
system.cpu.dcache.overall_misses::total           253                       # number of overall misses
system.cpu.dcache.demand_miss_latency::.cpu.data     14310750                       # number of demand (read+write) miss cycles
system.cpu.dcache.demand_miss_latency::total     14310750                       # number of demand (read+write) miss cycles
system.cpu.dcache.overall_miss_latency::.cpu.data     14310750                       # number of overall miss cycles
system.cpu.dcache.overall_miss_latency::total     14310750                       # number of overall miss cycles
system.cpu.dcache.demand_accesses::.cpu.data         6387                       # number of demand (read+write) accesses
system.cpu.dcache.demand_accesses::total         6387                       # number of demand (read+write) accesses
system.cpu.dcache.overall_accesses::.cpu.data         6416                       # number of overall (read+write) accesses
system.cpu.dcache.overall_accesses::total         6416                       # number of overall (read+write) accesses
system.cpu.dcache.demand_miss_rate::.cpu.data     0.038046                       # miss rate for demand accesses
system.cpu.dcache.demand_miss_rate::total     0.038046                       # miss rate for demand accesses
system.cpu.dcache.overall_miss_rate::.cpu.data     0.039433                       # miss rate for overall accesses
system.cpu.dcache.overall_miss_rate::total     0.039433                       # miss rate for overall accesses
system.cpu.dcache.demand_avg_miss_latency::.cpu.data 58891.975309                       # average overall miss latency
system.cpu.dcache.demand_avg_miss_latency::total 58891.975309                       # average overall miss latency
system.cpu.dcache.overall_avg_miss_latency::.cpu.data 56564.229249                       # average overall miss latency
system.cpu.dcache.overall_avg_miss_latency::total 56564.229249                       # average overall miss latency
system.cpu.dcache.blocked_cycles::no_mshrs            0                       # number of cycles access was blocked
system.cpu.dcache.blocked_cycles::no_targets            0                       # number of cycles access was blocked
system.cpu.dcache.blocked::no_mshrs                 0                       # number of cycles access was blocked
system.cpu.dcache.blocked::no_targets               0                       # number of cycles access was blocked
system.cpu.dcache.avg_blocked_cycles::no_mshrs          nan                       # average number of cycles each access was blocked
system.cpu.dcache.avg_blocked_cycles::no_targets          nan                       # average number of cycles each access was blocked
system.cpu.dcache.demand_mshr_hits::.cpu.data           53                       # number of demand (read+write) MSHR hits
system.cpu.dcache.demand_mshr_hits::total           53                       # number of demand (read+write) MSHR hits
system.cpu.dcache.overall_mshr_hits::.cpu.data           53                       # number of overall MSHR hits
system.cpu.dcache.overall_mshr_hits::total           53                       # number of overall MSHR hits
system.cpu.dcache.demand_mshr_misses::.cpu.data          190                       # number of demand (read+write) MSHR misses
system.cpu.dcache.demand_mshr_misses::total          190                       # number of demand (read+write) MSHR misses
system.cpu.dcache.overall_mshr_misses::.cpu.data          196                       # number of overall MSHR misses
system.cpu.dcache.overall_mshr_misses::total          196                       # number of overall MSHR misses
system.cpu.dcache.demand_mshr_miss_latency::.cpu.data     11153250                       # number of demand (read+write) MSHR miss cycles
system.cpu.dcache.demand_mshr_miss_latency::total     11153250                       # number of demand (read+write) MSHR miss cycles
system.cpu.dcache.overall_mshr_miss_latency::.cpu.data     11492000                       # number of overall MSHR miss cycles
system.cpu.dcache.overall_mshr_miss_latency::total     11492000                       # number of overall MSHR miss cycles
system.cpu.dcache.demand_mshr_miss_rate::.cpu.data     0.029748                       # mshr miss rate for demand accesses
system.cpu.dcache.demand_mshr_miss_rate::total     0.029748                       # mshr miss rate for demand accesses
system.cpu.dcache.overall_mshr_miss_rate::.cpu.data     0.030549                       # mshr miss rate for overall accesses
system.cpu.dcache.overall_mshr_miss_rate::total     0.030549                       # mshr miss rate for overall accesses
system.cpu.dcache.demand_avg_mshr_miss_latency::.cpu.data 58701.315789                       # average overall mshr miss latency
system.cpu.dcache.demand_avg_mshr_miss_latency::total 58701.315789                       # average overall mshr miss latency
system.cpu.dcache.overall_avg_mshr_miss_latency::.cpu.data 58632.653061                       # average overall mshr miss latency
system.cpu.dcache.overall_avg_mshr_miss_latency::total 58632.653061                       # average overall mshr miss latency
system.cpu.dcache.replacements                      0                       # number of replacements
system.cpu.dcache.ReadReq_hits::.cpu.data         3303                       # number of ReadReq hits
system.cpu.dcache.ReadReq_hits::total            3303                       # number of ReadReq hits
system.cpu.dcache.ReadReq_misses::.cpu.data          127                       # number of ReadReq misses
system.cpu.dcache.ReadReq_misses::total           127                       # number of ReadReq misses
system.cpu.dcache.ReadReq_miss_latency::.cpu.data      7547750                       # number of ReadReq miss cycles
system.cpu.dcache.ReadReq_miss_latency::total      7547750                       # number of ReadReq miss cycles
system.cpu.dcache.ReadReq_accesses::.cpu.data         3430                       # number of ReadReq accesses(hits+misses)
system.cpu.dcache.ReadReq_accesses::total         3430                       # number of ReadReq accesses(hits+misses)
system.cpu.dcache.ReadReq_miss_rate::.cpu.data     0.037026                       # miss rate for ReadReq accesses
system.cpu.dcache.ReadReq_miss_rate::total     0.037026                       # miss rate for ReadReq accesses
system.cpu.dcache.ReadReq_avg_miss_latency::.cpu.data 59431.102362                       # average ReadReq miss latency
system.cpu.dcache.ReadReq_avg_miss_latency::total 59431.102362                       # average ReadReq miss latency
system.cpu.dcache.ReadReq_mshr_hits::.cpu.data            7                       # number of ReadReq MSHR hits
system.cpu.dcache.ReadReq_mshr_hits::total            7                       # number of ReadReq MSHR hits
system.cpu.dcache.ReadReq_mshr_misses::.cpu.data          120                       # number of ReadReq MSHR misses
system.cpu.dcache.ReadReq_mshr_misses::total          120                       # number of ReadReq MSHR misses
system.cpu.dcache.ReadReq_mshr_miss_latency::.cpu.data      7103500                       # number of ReadReq MSHR miss cycles
system.cpu.dcache.ReadReq_mshr_miss_latency::total      7103500                       # number of ReadReq MSHR miss cycles
system.cpu.dcache.ReadReq_mshr_miss_rate::.cpu.data     0.034985                       # mshr miss rate for ReadReq accesses
system.cpu.dcache.ReadReq_mshr_miss_rate::total     0.034985                       # mshr miss rate for ReadReq accesses
system.cpu.dcache.ReadReq_avg_mshr_miss_latency::.cpu.data 59195.833333                       # average ReadReq mshr miss latency
system.cpu.dcache.ReadReq_avg_mshr_miss_latency::total 59195.833333                       # average ReadReq mshr miss latency
system.cpu.dcache.WriteReq_hits::.cpu.data         2841                       # number of WriteReq hits
system.cpu.dcache.WriteReq_hits::total           2841                       # number of WriteReq hits
system.cpu.dcache.WriteReq_misses::.cpu.data          116                       # number of WriteReq misses
system.cpu.dcache.WriteReq_misses::total          116                       # number of WriteReq misses
system.cpu.dcache.WriteReq_miss_latency::.cpu.data      6763000                       # number of WriteReq miss cycles
system.cpu.dcache.WriteReq_miss_latency::total      6763000                       # number of WriteReq miss cycles
system.cpu.dcache.WriteReq_accesses::.cpu.data         2957                       # number of WriteReq accesses(hits+misses)
system.cpu.dcache.WriteReq_accesses::total         2957                       # number of WriteReq accesses(hits+misses)
system.cpu.dcache.WriteReq_miss_rate::.cpu.data     0.039229                       # miss rate for WriteReq accesses
system.cpu.dcache.WriteReq_miss_rate::total     0.039229                       # miss rate for WriteReq accesses
system.cpu.dcache.WriteReq_avg_miss_latency::.cpu.data 58301.724138                       # average WriteReq miss latency
system.cpu.dcache.WriteReq_avg_miss_latency::total 58301.724138                       # average WriteReq miss latency
system.cpu.dcache.WriteReq_mshr_hits::.cpu.data           46                       # number of WriteReq MSHR hits
system.cpu.dcache.WriteReq_mshr_hits::total           46                       # number of WriteReq MSHR hits
system.cpu.dcache.WriteReq_mshr_misses::.cpu.data           70                       # number of WriteReq MSHR misses
system.cpu.dcache.WriteReq_mshr_misses::total           70                       # number of WriteReq MSHR misses
system.cpu.dcache.WriteReq_mshr_miss_latency::.cpu.data      4049750                       # number of WriteReq MSHR miss cycles
system.cpu.dcache.WriteReq_mshr_miss_latency::total      4049750                       # number of WriteReq MSHR miss cycles
system.cpu.dcache.WriteReq_mshr_miss_rate::.cpu.data     0.023673                       # mshr miss rate for WriteReq accesses
system.cpu.dcache.WriteReq_mshr_miss_rate::total     0.023673                       # mshr miss rate for WriteReq accesses
system.cpu.dcache.WriteReq_avg_mshr_miss_latency::.cpu.data 57853.571429                       # average WriteReq mshr miss latency
system.cpu.dcache.WriteReq_avg_mshr_miss_latency::total 57853.571429                       # average WriteReq mshr miss latency
system.cpu.dcache.SoftPFReq_hits::.cpu.data           19                       # number of SoftPFReq hits
system.cpu.dcache.SoftPFReq_hits::total            19                       # number of SoftPFReq hits
system.cpu.dcache.SoftPFReq_misses::.cpu.data           10                       # number of SoftPFReq misses
system.cpu.dcache.SoftPFReq_misses::total           10                       # number of SoftPFReq misses
system.cpu.dcache.SoftPFReq_accesses::.cpu.data           29                       # number of SoftPFReq accesses(hits+misses)
system.cpu.dcache.SoftPFReq_accesses::total           29                       # number of SoftPFReq accesses(hits+misses)
system.cpu.dcache.SoftPFReq_miss_rate::.cpu.data     0.344828                       # miss rate for SoftPFReq accesses
system.cpu.dcache.SoftPFReq_miss_rate::total     0.344828                       # miss rate for SoftPFReq accesses
system.cpu.dcache.SoftPFReq_mshr_misses::.cpu.data            6                       # number of SoftPFReq MSHR misses
system.cpu.dcache.SoftPFReq_mshr_misses::total            6                       # number of SoftPFReq MSHR misses
system.cpu.dcache.SoftPFReq_mshr_miss_latency::.cpu.data       338750                       # number of SoftPFReq MSHR miss cycles
system.cpu.dcache.SoftPFReq_mshr_miss_latency::total       338750                       # number of SoftPFReq MSHR miss cycles
system.cpu.dcache.SoftPFReq_mshr_miss_rate::.cpu.data     0.206897                       # mshr miss rate for SoftPFReq accesses
system.cpu.dcache.SoftPFReq_mshr_miss_rate::total     0.206897                       # mshr miss rate for SoftPFReq accesses
system.cpu.dcache.SoftPFReq_avg_mshr_miss_latency::.cpu.data 56458.333333                       # average SoftPFReq mshr miss latency
system.cpu.dcache.SoftPFReq_avg_mshr_miss_latency::total 56458.333333                       # average SoftPFReq mshr miss latency
system.cpu.dcache.LoadLockedReq_hits::.cpu.data           36                       # number of LoadLockedReq hits
system.cpu.dcache.LoadLockedReq_hits::total           36                       # number of LoadLockedReq hits
system.cpu.dcache.LoadLockedReq_accesses::.cpu.data           36                       # number of LoadLockedReq accesses(hits+misses)
system.cpu.dcache.LoadLockedReq_accesses::total           36                       # number of LoadLockedReq accesses(hits+misses)
system.cpu.dcache.StoreCondReq_hits::.cpu.data           36                       # number of StoreCondReq hits
system.cpu.dcache.StoreCondReq_hits::total           36                       # number of StoreCondReq hits
system.cpu.dcache.StoreCondReq_accesses::.cpu.data           36                       # number of StoreCondReq accesses(hits+misses)
system.cpu.dcache.StoreCondReq_accesses::total           36                       # number of StoreCondReq accesses(hits+misses)
system.cpu.dcache.power_state.pwrStateResidencyTicks::UNDEFINED     36937000                       # Cumulative time (in ticks) in various power states
system.cpu.dcache.tags.tagsinuse           113.608335                       # Cycle average of tags in use
system.cpu.dcache.tags.total_refs                6431                       # Total number of references to valid blocks.
system.cpu.dcache.tags.sampled_refs               196                       # Sample count of references to valid blocks.
system.cpu.dcache.tags.avg_refs             32.811224                       # Average number of references to valid blocks.
system.cpu.dcache.tags.warmup_cycle            143000                       # Cycle when the warmup percentage was hit.
system.cpu.dcache.tags.occ_blocks::.cpu.data   113.608335                       # Average occupied blocks per requestor
system.cpu.dcache.tags.occ_percent::.cpu.data     0.110946                       # Average percentage of cache occupancy
system.cpu.dcache.tags.occ_percent::total     0.110946                       # Average percentage of cache occupancy
system.cpu.dcache.tags.occ_task_id_blocks::1024          196                       # Occupied blocks per task id
system.cpu.dcache.tags.age_task_id_blocks_1024::0           31                       # Occupied blocks per task id
system.cpu.dcache.tags.age_task_id_blocks_1024::1          165                       # Occupied blocks per task id
system.cpu.dcache.tags.occ_task_id_percent::1024     0.191406                       # Percentage of cache occupancy per task id
system.cpu.dcache.tags.tag_accesses             13172                       # Number of tag accesses
system.cpu.dcache.tags.data_accesses            13172                       # Number of data accesses
system.cpu.dcache.tags.power_state.pwrStateResidencyTicks::UNDEFINED     36937000                       # Cumulative time (in ticks) in various power states
system.cpu.dtb.instHits                             0                       # ITB inst hits
system.cpu.dtb.instMisses                           0                       # ITB inst misses
system.cpu.dtb.readHits                             0                       # DTB read hits
system.cpu.dtb.readMisses                           0                       # DTB read misses
system.cpu.dtb.writeHits                            0                       # DTB write hits
system.cpu.dtb.writeMisses                          0                       # DTB write misses
system.cpu.dtb.inserts                              0                       # Number of times an entry is inserted into the TLB
system.cpu.dtb.flushTlb                             0                       # Number of times complete TLB was flushed
system.cpu.dtb.flushTlbMva                          0                       # Number of times TLB was flushed by MVA
system.cpu.dtb.flushTlbMvaAsid                      0                       # Number of times TLB was flushed by MVA & ASID
system.cpu.dtb.flushTlbAsid                         0                       # Number of times TLB was flushed by ASID
system.cpu.dtb.flushedEntries                       0                       # Number of entries that have been flushed from TLB
system.cpu.dtb.alignFaults                          0                       # Number of TLB faults due to alignment restrictions
system.cpu.dtb.prefetchFaults                       0                       # Number of TLB faults due to prefetch
system.cpu.dtb.domainFaults                         0                       # Number of TLB faults due to domain restrictions
system.cpu.dtb.permsFaults                          0                       # Number of TLB faults due to permissions restrictions
system.cpu.dtb.readAccesses                         0                       # DTB read accesses
system.cpu.dtb.writeAccesses                        0                       # DTB write accesses
system.cpu.dtb.instAccesses                         0                       # ITB inst accesses
system.cpu.dtb.hits                                 0                       # Total TLB (inst and data) hits
system.cpu.dtb.misses                               0                       # Total TLB (inst and data) misses
system.cpu.dtb.accesses                             0                       # Total TLB (inst and data) accesses
system.cpu.dtb.stage2_mmu.stage2_tlb.instHits            0                       # ITB inst hits
system.cpu.dtb.stage2_mmu.stage2_tlb.instMisses            0                       # ITB inst misses
system.cpu.dtb.stage2_mmu.stage2_tlb.readHits            0                       # DTB read hits
system.cpu.dtb.stage2_mmu.stage2_tlb.readMisses            0                       # DTB read misses
system.cpu.dtb.stage2_mmu.stage2_tlb.writeHits            0                       # DTB write hits
system.cpu.dtb.stage2_mmu.stage2_tlb.writeMisses            0                       # DTB write misses
system.cpu.dtb.stage2_mmu.stage2_tlb.inserts            0                       # Number of times an entry is inserted into the TLB
system.cpu.dtb.stage2_mmu.stage2_tlb.flushTlb            0                       # Number of times complete TLB was flushed
system.cpu.dtb.stage2_mmu.stage2_tlb.flushTlbMva            0                       # Number of times TLB was flushed by MVA
system.cpu.dtb.stage2_mmu.stage2_tlb.flushTlbMvaAsid            0                       # Number of times TLB was flushed by MVA & ASID
system.cpu.dtb.stage2_mmu.stage2_tlb.flushTlbAsid            0                       # Number of times TLB was flushed by ASID
system.cpu.dtb.stage2_mmu.stage2_tlb.flushedEntries            0                       # Number of entries that have been flushed from TLB
system.cpu.dtb.stage2_mmu.stage2_tlb.alignFaults            0                       # Number of TLB faults due to alignment restrictions
system.cpu.dtb.stage2_mmu.stage2_tlb.prefetchFaults            0                       # Number of TLB faults due to prefetch
system.cpu.dtb.stage2_mmu.stage2_tlb.domainFaults            0                       # Number of TLB faults due to domain restrictions
system.cpu.dtb.stage2_mmu.stage2_tlb.permsFaults            0                       # Number of TLB faults due to permissions restrictions
system.cpu.dtb.stage2_mmu.stage2_tlb.readAccesses            0                       # DTB read accesses
system.cpu.dtb.stage2_mmu.stage2_tlb.writeAccesses            0                       # DTB write accesses
system.cpu.dtb.stage2_mmu.stage2_tlb.instAccesses            0                       # ITB inst accesses
system.cpu.dtb.stage2_mmu.stage2_tlb.hits            0                       # Total TLB (inst and data) hits
system.cpu.dtb.stage2_mmu.stage2_tlb.misses            0                       # Total TLB (inst and data) misses
system.cpu.dtb.stage2_mmu.stage2_tlb.accesses            0                       # Total TLB (inst and data) accesses
system.cpu.dtb.stage2_mmu.stage2_tlb.walker.walks            0                       # Table walker walks requested
system.cpu.dtb.stage2_mmu.stage2_tlb.walker.requestOrigin_Requested::Data            0                       # Table walker requests started/completed, data/inst
system.cpu.dtb.stage2_mmu.stage2_tlb.walker.requestOrigin_Requested::Inst            0                       # Table walker requests started/completed, data/inst
system.cpu.dtb.stage2_mmu.stage2_tlb.walker.requestOrigin_Requested::total            0                       # Table walker requests started/completed, data/inst
system.cpu.dtb.stage2_mmu.stage2_tlb.walker.requestOrigin_Completed::Data            0                       # Table walker requests started/completed, data/inst
system.cpu.dtb.stage2_mmu.stage2_tlb.walker.requestOrigin_Completed::Inst            0                       # Table walker requests started/completed, data/inst
system.cpu.dtb.stage2_mmu.stage2_tlb.walker.requestOrigin_Completed::total            0                       # Table walker requests started/completed, data/inst
system.cpu.dtb.stage2_mmu.stage2_tlb.walker.requestOrigin::total            0                       # Table walker requests started/completed, data/inst
system.cpu.dtb.stage2_mmu.stage2_tlb.walker.power_state.pwrStateResidencyTicks::UNDEFINED     36937000                       # Cumulative time (in ticks) in various power states
system.cpu.dtb.walker.walks                         0                       # Table walker walks requested
system.cpu.dtb.walker.requestOrigin_Requested::Data            0                       # Table walker requests started/completed, data/inst
system.cpu.dtb.walker.requestOrigin_Requested::Inst            0                       # Table walker requests started/completed, data/inst
system.cpu.dtb.walker.requestOrigin_Requested::total            0                       # Table walker requests started/completed, data/inst
system.cpu.dtb.walker.requestOrigin_Completed::Data            0                       # Table walker requests started/completed, data/inst
system.cpu.dtb.walker.requestOrigin_Completed::Inst            0                       # Table walker requests started/completed, data/inst
system.cpu.dtb.walker.requestOrigin_Completed::total            0                       # Table walker requests started/completed, data/inst
system.cpu.dtb.walker.requestOrigin::total            0                       # Table walker requests started/completed, data/inst
system.cpu.dtb.walker.power_state.pwrStateResidencyTicks::UNDEFINED     36937000                       # Cumulative time (in ticks) in various power states
system.cpu.fetch2.intInstructions               14397                       # Number of integer instructions successfully decoded
system.cpu.fetch2.fpInstructions                    0                       # Number of floating point instructions successfully decoded
system.cpu.fetch2.vecInstructions                   0                       # Number of SIMD instructions successfully decoded
system.cpu.fetch2.loadInstructions               3466                       # Number of memory load instructions successfully decoded
system.cpu.fetch2.storeInstructions              1960                       # Number of memory store instructions successfully decoded
system.cpu.fetch2.amoInstructions                   0                       # Number of memory atomic instructions successfully decoded
system.cpu.icache.demand_hits::.cpu.inst         5671                       # number of demand (read+write) hits
system.cpu.icache.demand_hits::total             5671                       # number of demand (read+write) hits
system.cpu.icache.overall_hits::.cpu.inst         5671                       # number of overall hits
system.cpu.icache.overall_hits::total            5671                       # number of overall hits
system.cpu.icache.demand_misses::.cpu.inst          477                       # number of demand (read+write) misses
system.cpu.icache.demand_misses::total            477                       # number of demand (read+write) misses
system.cpu.icache.overall_misses::.cpu.inst          477                       # number of overall misses
system.cpu.icache.overall_misses::total           477                       # number of overall misses
system.cpu.icache.demand_miss_latency::.cpu.inst     25709500                       # number of demand (read+write) miss cycles
system.cpu.icache.demand_miss_latency::total     25709500                       # number of demand (read+write) miss cycles
system.cpu.icache.overall_miss_latency::.cpu.inst     25709500                       # number of overall miss cycles
system.cpu.icache.overall_miss_latency::total     25709500                       # number of overall miss cycles
system.cpu.icache.demand_accesses::.cpu.inst         6148                       # number of demand (read+write) accesses
system.cpu.icache.demand_accesses::total         6148                       # number of demand (read+write) accesses
system.cpu.icache.overall_accesses::.cpu.inst         6148                       # number of overall (read+write) accesses
system.cpu.icache.overall_accesses::total         6148                       # number of overall (read+write) accesses
system.cpu.icache.demand_miss_rate::.cpu.inst     0.077586                       # miss rate for demand accesses
system.cpu.icache.demand_miss_rate::total     0.077586                       # miss rate for demand accesses
system.cpu.icache.overall_miss_rate::.cpu.inst     0.077586                       # miss rate for overall accesses
system.cpu.icache.overall_miss_rate::total     0.077586                       # miss rate for overall accesses
system.cpu.icache.demand_avg_miss_latency::.cpu.inst 53898.322851                       # average overall miss latency
system.cpu.icache.demand_avg_miss_latency::total 53898.322851                       # average overall miss latency
system.cpu.icache.overall_avg_miss_latency::.cpu.inst 53898.322851                       # average overall miss latency
system.cpu.icache.overall_avg_miss_latency::total 53898.322851                       # average overall miss latency
system.cpu.icache.blocked_cycles::no_mshrs            0                       # number of cycles access was blocked
system.cpu.icache.blocked_cycles::no_targets            0                       # number of cycles access was blocked
system.cpu.icache.blocked::no_mshrs                 0                       # number of cycles access was blocked
system.cpu.icache.blocked::no_targets               0                       # number of cycles access was blocked
system.cpu.icache.avg_blocked_cycles::no_mshrs          nan                       # average number of cycles each access was blocked
system.cpu.icache.avg_blocked_cycles::no_targets          nan                       # average number of cycles each access was blocked
system.cpu.icache.writebacks::.writebacks          148                       # number of writebacks
system.cpu.icache.writebacks::total               148                       # number of writebacks
system.cpu.icache.demand_mshr_misses::.cpu.inst          477                       # number of demand (read+write) MSHR misses
system.cpu.icache.demand_mshr_misses::total          477                       # number of demand (read+write) MSHR misses
system.cpu.icache.overall_mshr_misses::.cpu.inst          477                       # number of overall MSHR misses
system.cpu.icache.overall_mshr_misses::total          477                       # number of overall MSHR misses
system.cpu.icache.demand_mshr_miss_latency::.cpu.inst     25471000                       # number of demand (read+write) MSHR miss cycles
system.cpu.icache.demand_mshr_miss_latency::total     25471000                       # number of demand (read+write) MSHR miss cycles
system.cpu.icache.overall_mshr_miss_latency::.cpu.inst     25471000                       # number of overall MSHR miss cycles
system.cpu.icache.overall_mshr_miss_latency::total     25471000                       # number of overall MSHR miss cycles
system.cpu.icache.demand_mshr_miss_rate::.cpu.inst     0.077586                       # mshr miss rate for demand accesses
system.cpu.icache.demand_mshr_miss_rate::total     0.077586                       # mshr miss rate for demand accesses
system.cpu.icache.overall_mshr_miss_rate::.cpu.inst     0.077586                       # mshr miss rate for overall accesses
system.cpu.icache.overall_mshr_miss_rate::total     0.077586                       # mshr miss rate for overall accesses
system.cpu.icache.demand_avg_mshr_miss_latency::.cpu.inst 53398.322851                       # average overall mshr miss latency
system.cpu.icache.demand_avg_mshr_miss_latency::total 53398.322851                       # average overall mshr miss latency
system.cpu.icache.overall_avg_mshr_miss_latency::.cpu.inst 53398.322851                       # average overall mshr miss latency
system.cpu.icache.overall_avg_mshr_miss_latency::total 53398.322851                       # average overall mshr miss latency
system.cpu.icache.replacements                    148                       # number of replacements
system.cpu.icache.ReadReq_hits::.cpu.inst         5671                       # number of ReadReq hits
system.cpu.icache.ReadReq_hits::total            5671                       # number of ReadReq hits
system.cpu.icache.ReadReq_misses::.cpu.inst          477                       # number of ReadReq misses
system.cpu.icache.ReadReq_misses::total           477                       # number of ReadReq misses
system.cpu.icache.ReadReq_miss_latency::.cpu.inst     25709500                       # number of ReadReq miss cycles
system.cpu.icache.ReadReq_miss_latency::total     25709500                       # number of ReadReq miss cycles
system.cpu.icache.ReadReq_accesses::.cpu.inst         6148                       # number of ReadReq accesses(hits+misses)
system.cpu.icache.ReadReq_accesses::total         6148                       # number of ReadReq accesses(hits+misses)
system.cpu.icache.ReadReq_miss_rate::.cpu.inst     0.077586                       # miss rate for ReadReq accesses
system.cpu.icache.ReadReq_miss_rate::total     0.077586                       # miss rate for ReadReq accesses
system.cpu.icache.ReadReq_avg_miss_latency::.cpu.inst 53898.322851                       # average ReadReq miss latency
system.cpu.icache.ReadReq_avg_miss_latency::total 53898.322851                       # average ReadReq miss latency
system.cpu.icache.ReadReq_mshr_misses::.cpu.inst          477                       # number of ReadReq MSHR misses
system.cpu.icache.ReadReq_mshr_misses::total          477                       # number of ReadReq MSHR misses
system.cpu.icache.ReadReq_mshr_miss_latency::.cpu.inst     25471000                       # number of ReadReq MSHR miss cycles
system.cpu.icache.ReadReq_mshr_miss_latency::total     25471000                       # number of ReadReq MSHR miss cycles
system.cpu.icache.ReadReq_mshr_miss_rate::.cpu.inst     0.077586                       # mshr miss rate for ReadReq accesses
system.cpu.icache.ReadReq_mshr_miss_rate::total     0.077586                       # mshr miss rate for ReadReq accesses
system.cpu.icache.ReadReq_avg_mshr_miss_latency::.cpu.inst 53398.322851                       # average ReadReq mshr miss latency
system.cpu.icache.ReadReq_avg_mshr_miss_latency::total 53398.322851                       # average ReadReq mshr miss latency
system.cpu.icache.power_state.pwrStateResidencyTicks::UNDEFINED     36937000                       # Cumulative time (in ticks) in various power states
system.cpu.icache.tags.tagsinuse           199.110462                       # Cycle average of tags in use
system.cpu.icache.tags.total_refs                6148                       # Total number of references to valid blocks.
system.cpu.icache.tags.sampled_refs               477                       # Sample count of references to valid blocks.
system.cpu.icache.tags.avg_refs             12.888889                       # Average number of references to valid blocks.
system.cpu.icache.tags.warmup_cycle             77000                       # Cycle when the warmup percentage was hit.
system.cpu.icache.tags.occ_blocks::.cpu.inst   199.110462                       # Average occupied blocks per requestor
system.cpu.icache.tags.occ_percent::.cpu.inst     0.388888                       # Average percentage of cache occupancy
system.cpu.icache.tags.occ_percent::total     0.388888                       # Average percentage of cache occupancy
system.cpu.icache.tags.occ_task_id_blocks::1024          329                       # Occupied blocks per task id
system.cpu.icache.tags.age_task_id_blocks_1024::0           80                       # Occupied blocks per task id
system.cpu.icache.tags.age_task_id_blocks_1024::1          249                       # Occupied blocks per task id
system.cpu.icache.tags.occ_task_id_percent::1024     0.642578                       # Percentage of cache occupancy per task id
system.cpu.icache.tags.tag_accesses             12773                       # Number of tag accesses
system.cpu.icache.tags.data_accesses            12773                       # Number of data accesses
system.cpu.icache.tags.power_state.pwrStateResidencyTicks::UNDEFINED     36937000                       # Cumulative time (in ticks) in various power states
system.cpu.itb.instHits                             0                       # ITB inst hits
system.cpu.itb.instMisses                           0                       # ITB inst misses
system.cpu.itb.readHits                             0                       # DTB read hits
system.cpu.itb.readMisses                           0                       # DTB read misses
system.cpu.itb.writeHits                            0                       # DTB write hits
system.cpu.itb.writeMisses                          0                       # DTB write misses
system.cpu.itb.inserts                              0                       # Number of times an entry is inserted into the TLB
system.cpu.itb.flushTlb                             0                       # Number of times complete TLB was flushed
system.cpu.itb.flushTlbMva                          0                       # Number of times TLB was flushed by MVA
system.cpu.itb.flushTlbMvaAsid                      0                       # Number of times TLB was flushed by MVA & ASID
system.cpu.itb.flushTlbAsid                         0                       # Number of times TLB was flushed by ASID
system.cpu.itb.flushedEntries                       0                       # Number of entries that have been flushed from TLB
system.cpu.itb.alignFaults                          0                       # Number of TLB faults due to alignment restrictions
system.cpu.itb.prefetchFaults                       0                       # Number of TLB faults due to prefetch
system.cpu.itb.domainFaults                         0                       # Number of TLB faults due to domain restrictions
system.cpu.itb.permsFaults                          0                       # Number of TLB faults due to permissions restrictions
system.cpu.itb.readAccesses                         0                       # DTB read accesses
system.cpu.itb.writeAccesses                        0                       # DTB write accesses
system.cpu.itb.instAccesses                         0                       # ITB inst accesses
system.cpu.itb.hits                                 0                       # Total TLB (inst and data) hits
system.cpu.itb.misses                               0                       # Total TLB (inst and data) misses
system.cpu.itb.accesses                             0                       # Total TLB (inst and data) accesses
system.cpu.itb.stage2_mmu.stage2_tlb.instHits            0                       # ITB inst hits
system.cpu.itb.stage2_mmu.stage2_tlb.instMisses            0                       # ITB inst misses
system.cpu.itb.stage2_mmu.stage2_tlb.readHits            0                       # DTB read hits
system.cpu.itb.stage2_mmu.stage2_tlb.readMisses            0                       # DTB read misses
system.cpu.itb.stage2_mmu.stage2_tlb.writeHits            0                       # DTB write hits
system.cpu.itb.stage2_mmu.stage2_tlb.writeMisses            0                       # DTB write misses
system.cpu.itb.stage2_mmu.stage2_tlb.inserts            0                       # Number of times an entry is inserted into the TLB
system.cpu.itb.stage2_mmu.stage2_tlb.flushTlb            0                       # Number of times complete TLB was flushed
system.cpu.itb.stage2_mmu.stage2_tlb.flushTlbMva            0                       # Number of times TLB was flushed by MVA
system.cpu.itb.stage2_mmu.stage2_tlb.flushTlbMvaAsid            0                       # Number of times TLB was flushed by MVA & ASID
system.cpu.itb.stage2_mmu.stage2_tlb.flushTlbAsid            0                       # Number of times TLB was flushed by ASID
system.cpu.itb.stage2_mmu.stage2_tlb.flushedEntries            0                       # Number of entries that have been flushed from TLB
system.cpu.itb.stage2_mmu.stage2_tlb.alignFaults            0                       # Number of TLB faults due to alignment restrictions
system.cpu.itb.stage2_mmu.stage2_tlb.prefetchFaults            0                       # Number of TLB faults due to prefetch
system.cpu.itb.stage2_mmu.stage2_tlb.domainFaults            0                       # Number of TLB faults due to domain restrictions
system.cpu.itb.stage2_mmu.stage2_tlb.permsFaults            0                       # Number of TLB faults due to permissions restrictions
system.cpu.itb.stage2_mmu.stage2_tlb.readAccesses            0                       # DTB read accesses
system.cpu.itb.stage2_mmu.stage2_tlb.writeAccesses            0                       # DTB write accesses
system.cpu.itb.stage2_mmu.stage2_tlb.instAccesses            0                       # ITB inst accesses
system.cpu.itb.stage2_mmu.stage2_tlb.hits            0                       # Total TLB (inst and data) hits
system.cpu.itb.stage2_mmu.stage2_tlb.misses            0                       # Total TLB (inst and data) misses
system.cpu.itb.stage2_mmu.stage2_tlb.accesses            0                       # Total TLB (inst and data) accesses
system.cpu.itb.stage2_mmu.stage2_tlb.walker.walks            0                       # Table walker walks requested
system.cpu.itb.stage2_mmu.stage2_tlb.walker.requestOrigin_Requested::Data            0                       # Table walker requests started/completed, data/inst
system.cpu.itb.stage2_mmu.stage2_tlb.walker.requestOrigin_Requested::Inst            0                       # Table walker requests started/completed, data/inst
system.cpu.itb.stage2_mmu.stage2_tlb.walker.requestOrigin_Requested::total            0                       # Table walker requests started/completed, data/inst
system.cpu.itb.stage2_mmu.stage2_tlb.walker.requestOrigin_Completed::Data            0                       # Table walker requests started/completed, data/inst
system.cpu.itb.stage2_mmu.stage2_tlb.walker.requestOrigin_Completed::Inst            0                       # Table walker requests started/completed, data/inst
system.cpu.itb.stage2_mmu.stage2_tlb.walker.requestOrigin_Completed::total            0                       # Table walker requests started/completed, data/inst
system.cpu.itb.stage2_mmu.stage2_tlb.walker.requestOrigin::total            0                       # Table walker requests started/completed, data/inst
system.cpu.itb.stage2_mmu.stage2_tlb.walker.power_state.pwrStateResidencyTicks::UNDEFINED     36937000                       # Cumulative time (in ticks) in various power states
system.cpu.itb.walker.walks                         0                       # Table walker walks requested
system.cpu.itb.walker.requestOrigin_Requested::Data            0                       # Table walker requests started/completed, data/inst
system.cpu.itb.walker.requestOrigin_Requested::Inst            0                       # Table walker requests started/completed, data/inst
system.cpu.itb.walker.requestOrigin_Requested::total            0                       # Table walker requests started/completed, data/inst
system.cpu.itb.walker.requestOrigin_Completed::Data            0                       # Table walker requests started/completed, data/inst
system.cpu.itb.walker.requestOrigin_Completed::Inst            0                       # Table walker requests started/completed, data/inst
system.cpu.itb.walker.requestOrigin_Completed::total            0                       # Table walker requests started/completed, data/inst
system.cpu.itb.walker.requestOrigin::total            0                       # Table walker requests started/completed, data/inst
system.cpu.itb.walker.power_state.pwrStateResidencyTicks::UNDEFINED     36937000                       # Cumulative time (in ticks) in various power states
system.cpu.power_state.pwrStateResidencyTicks::ON     36937000                       # Cumulative time (in ticks) in various power states
system.cpu.thread_0.numInsts                    16823                       # Number of Instructions committed
system.cpu.thread_0.numOps                      19851                       # Number of Ops committed
system.cpu.thread_0.numMemRefs                      0                       # Number of Memory References
system.cpu_clk_domain.clock                       250                       # Clock period in ticks
system.cpu_voltage_domain.voltage                   1                       # Voltage in Volts
system.mem_ctrls.avgPriority_.writebacks::samples       110.00                       # Average QoS priority value for accepted requests
system.mem_ctrls.avgPriority_.cpu.inst::samples       430.00                       # Average QoS priority value for accepted requests
system.mem_ctrls.avgPriority_.cpu.data::samples       196.00                       # Average QoS priority value for accepted requests
system.mem_ctrls.priorityMinLatency      0.000000018750                       # per QoS priority minimum request to response latency (s)
system.mem_ctrls.priorityMaxLatency      0.000032610750                       # per QoS priority maximum request to response latency (s)
system.mem_ctrls.numReadWriteTurnArounds            5                       # Number of turnarounds from READ to WRITE
system.mem_ctrls.numWriteReadTurnArounds            5                       # Number of turnarounds from WRITE to READ
system.mem_ctrls.numStayReadState                1385                       # Number of times bus staying in READ state
system.mem_ctrls.numStayWriteState                 75                       # Number of times bus staying in WRITE state
system.mem_ctrls.readReqs                         673                       # Number of read requests accepted
system.mem_ctrls.writeReqs                        144                       # Number of write requests accepted
system.mem_ctrls.readBursts                       673                       # Number of controller read bursts, including those serviced by the write queue
system.mem_ctrls.writeBursts                      144                       # Number of controller write bursts, including those merged in the write queue
system.mem_ctrls.servicedByWrQ                     47                       # Number of controller read bursts serviced by the write queue
system.mem_ctrls.mergedWrBursts                    34                       # Number of controller write bursts merged with an existing one
system.mem_ctrls.neitherReadNorWriteReqs            0                       # Number of requests that are neither read nor write
system.mem_ctrls.avgRdQLen                       1.18                       # Average read queue length when enqueuing
system.mem_ctrls.avgWrQLen                      13.86                       # Average write queue length when enqueuing
system.mem_ctrls.numRdRetry                         0                       # Number of times read queue was full causing retry
system.mem_ctrls.numWrRetry                         0                       # Number of times write queue was full causing retry
system.mem_ctrls.readPktSize::0                     0                       # Read request sizes (log2)
system.mem_ctrls.readPktSize::1                     0                       # Read request sizes (log2)
system.mem_ctrls.readPktSize::2                     0                       # Read request sizes (log2)
system.mem_ctrls.readPktSize::3                     0                       # Read request sizes (log2)
system.mem_ctrls.readPktSize::4                     0                       # Read request sizes (log2)
system.mem_ctrls.readPktSize::5                     0                       # Read request sizes (log2)
system.mem_ctrls.readPktSize::6                   673                       # Read request sizes (log2)
system.mem_ctrls.writePktSize::0                    0                       # Write request sizes (log2)
system.mem_ctrls.writePktSize::1                    0                       # Write request sizes (log2)
system.mem_ctrls.writePktSize::2                    0                       # Write request sizes (log2)
system.mem_ctrls.writePktSize::3                    0                       # Write request sizes (log2)
system.mem_ctrls.writePktSize::4                    0                       # Write request sizes (log2)
system.mem_ctrls.writePktSize::5                    0                       # Write request sizes (log2)
system.mem_ctrls.writePktSize::6                  144                       # Write request sizes (log2)
system.mem_ctrls.rdQLenPdf::0                     518                       # What read queue length does an incoming req see
system.mem_ctrls.rdQLenPdf::1                     101                       # What read queue length does an incoming req see
system.mem_ctrls.rdQLenPdf::2                       7                       # What read queue length does an incoming req see
system.mem_ctrls.rdQLenPdf::3                       0                       # What read queue length does an incoming req see
system.mem_ctrls.rdQLenPdf::4                       0                       # What read queue length does an incoming req see
system.mem_ctrls.rdQLenPdf::5                       0                       # What read queue length does an incoming req see
system.mem_ctrls.rdQLenPdf::6                       0                       # What read queue length does an incoming req see
system.mem_ctrls.rdQLenPdf::7                       0                       # What read queue length does an incoming req see
system.mem_ctrls.rdQLenPdf::8                       0                       # What read queue length does an incoming req see
system.mem_ctrls.rdQLenPdf::9                       0                       # What read queue length does an incoming req see
system.mem_ctrls.rdQLenPdf::10                      0                       # What read queue length does an incoming req see
system.mem_ctrls.rdQLenPdf::11                      0                       # What read queue length does an incoming req see
system.mem_ctrls.rdQLenPdf::12                      0                       # What read queue length does an incoming req see
system.mem_ctrls.rdQLenPdf::13                      0                       # What read queue length does an incoming req see
system.mem_ctrls.rdQLenPdf::14                      0                       # What read queue length does an incoming req see
system.mem_ctrls.rdQLenPdf::15                      0                       # What read queue length does an incoming req see
system.mem_ctrls.rdQLenPdf::16                      0                       # What read queue length does an incoming req see
system.mem_ctrls.rdQLenPdf::17                      0                       # What read queue length does an incoming req see
system.mem_ctrls.rdQLenPdf::18                      0                       # What read queue length does an incoming req see
system.mem_ctrls.rdQLenPdf::19                      0                       # What read queue length does an incoming req see
system.mem_ctrls.rdQLenPdf::20                      0                       # What read queue length does an incoming req see
system.mem_ctrls.rdQLenPdf::21                      0                       # What read queue length does an incoming req see
system.mem_ctrls.rdQLenPdf::22                      0                       # What read queue length does an incoming req see
system.mem_ctrls.rdQLenPdf::23                      0                       # What read queue length does an incoming req see
system.mem_ctrls.rdQLenPdf::24                      0                       # What read queue length does an incoming req see
system.mem_ctrls.rdQLenPdf::25                      0                       # What read queue length does an incoming req see
system.mem_ctrls.rdQLenPdf::26                      0                       # What read queue length does an incoming req see
system.mem_ctrls.rdQLenPdf::27                      0                       # What read queue length does an incoming req see
system.mem_ctrls.rdQLenPdf::28                      0                       # What read queue length does an incoming req see
system.mem_ctrls.rdQLenPdf::29                      0                       # What read queue length does an incoming req see
system.mem_ctrls.rdQLenPdf::30                      0                       # What read queue length does an incoming req see
system.mem_ctrls.rdQLenPdf::31                      0                       # What read queue length does an incoming req see
system.mem_ctrls.wrQLenPdf::0                       1                       # What write queue length does an incoming req see
system.mem_ctrls.wrQLenPdf::1                       1                       # What write queue length does an incoming req see
system.mem_ctrls.wrQLenPdf::2                       1                       # What write queue length does an incoming req see
system.mem_ctrls.wrQLenPdf::3                       1                       # What write queue length does an incoming req see
system.mem_ctrls.wrQLenPdf::4                       1                       # What write queue length does an incoming req see
system.mem_ctrls.wrQLenPdf::5                       1                       # What write queue length does an incoming req see
system.mem_ctrls.wrQLenPdf::6                       1                       # What write queue length does an incoming req see
system.mem_ctrls.wrQLenPdf::7                       1                       # What write queue length does an incoming req see
system.mem_ctrls.wrQLenPdf::8                       1                       # What write queue length does an incoming req see
system.mem_ctrls.wrQLenPdf::9                       1                       # What write queue length does an incoming req see
system.mem_ctrls.wrQLenPdf::10                      1                       # What write queue length does an incoming req see
system.mem_ctrls.wrQLenPdf::11                      1                       # What write queue length does an incoming req see
system.mem_ctrls.wrQLenPdf::12                      1                       # What write queue length does an incoming req see
system.mem_ctrls.wrQLenPdf::13                      1                       # What write queue length does an incoming req see
system.mem_ctrls.wrQLenPdf::14                      1                       # What write queue length does an incoming req see
system.mem_ctrls.wrQLenPdf::15                      1                       # What write queue length does an incoming req see
system.mem_ctrls.wrQLenPdf::16                      1                       # What write queue length does an incoming req see
system.mem_ctrls.wrQLenPdf::17                      6                       # What write queue length does an incoming req see
system.mem_ctrls.wrQLenPdf::18                      6                       # What write queue length does an incoming req see
system.mem_ctrls.wrQLenPdf::19                      6                       # What write queue length does an incoming req see
system.mem_ctrls.wrQLenPdf::20                      6                       # What write queue length does an incoming req see
system.mem_ctrls.wrQLenPdf::21                      6                       # What write queue length does an incoming req see
system.mem_ctrls.wrQLenPdf::22                      6                       # What write queue length does an incoming req see
system.mem_ctrls.wrQLenPdf::23                      6                       # What write queue length does an incoming req see
system.mem_ctrls.wrQLenPdf::24                      6                       # What write queue length does an incoming req see
system.mem_ctrls.wrQLenPdf::25                      6                       # What write queue length does an incoming req see
system.mem_ctrls.wrQLenPdf::26                      6                       # What write queue length does an incoming req see
system.mem_ctrls.wrQLenPdf::27                      6                       # What write queue length does an incoming req see
system.mem_ctrls.wrQLenPdf::28                      6                       # What write queue length does an incoming req see
system.mem_ctrls.wrQLenPdf::29                      6                       # What write queue length does an incoming req see
system.mem_ctrls.wrQLenPdf::30                      5                       # What write queue length does an incoming req see
system.mem_ctrls.wrQLenPdf::31                      5                       # What write queue length does an incoming req see
system.mem_ctrls.wrQLenPdf::32                      5                       # What write queue length does an incoming req see
system.mem_ctrls.wrQLenPdf::33                      0                       # What write queue length does an incoming req see
system.mem_ctrls.wrQLenPdf::34                      0                       # What write queue length does an incoming req see
system.mem_ctrls.wrQLenPdf::35                      0                       # What write queue length does an incoming req see
system.mem_ctrls.wrQLenPdf::36                      0                       # What write queue length does an incoming req see
system.mem_ctrls.wrQLenPdf::37                      0                       # What write queue length does an incoming req see
system.mem_ctrls.wrQLenPdf::38                      0                       # What write queue length does an incoming req see
system.mem_ctrls.wrQLenPdf::39                      0                       # What write queue length does an incoming req see
system.mem_ctrls.wrQLenPdf::40                      0                       # What write queue length does an incoming req see
system.mem_ctrls.wrQLenPdf::41                      0                       # What write queue length does an incoming req see
system.mem_ctrls.wrQLenPdf::42                      0                       # What write queue length does an incoming req see
system.mem_ctrls.wrQLenPdf::43                      0                       # What write queue length does an incoming req see
system.mem_ctrls.wrQLenPdf::44                      0                       # What write queue length does an incoming req see
system.mem_ctrls.wrQLenPdf::45                      0                       # What write queue length does an incoming req see
system.mem_ctrls.wrQLenPdf::46                      0                       # What write queue length does an incoming req see
system.mem_ctrls.wrQLenPdf::47                      0                       # What write queue length does an incoming req see
system.mem_ctrls.wrQLenPdf::48                      0                       # What write queue length does an incoming req see
system.mem_ctrls.wrQLenPdf::49                      0                       # What write queue length does an incoming req see
system.mem_ctrls.wrQLenPdf::50                      0                       # What write queue length does an incoming req see
system.mem_ctrls.wrQLenPdf::51                      0                       # What write queue length does an incoming req see
system.mem_ctrls.wrQLenPdf::52                      0                       # What write queue length does an incoming req see
system.mem_ctrls.wrQLenPdf::53                      0                       # What write queue length does an incoming req see
system.mem_ctrls.wrQLenPdf::54                      0                       # What write queue length does an incoming req see
system.mem_ctrls.wrQLenPdf::55                      0                       # What write queue length does an incoming req see
system.mem_ctrls.wrQLenPdf::56                      0                       # What write queue length does an incoming req see
system.mem_ctrls.wrQLenPdf::57                      0                       # What write queue length does an incoming req see
system.mem_ctrls.wrQLenPdf::58                      0                       # What write queue length does an incoming req see
system.mem_ctrls.wrQLenPdf::59                      0                       # What write queue length does an incoming req see
system.mem_ctrls.wrQLenPdf::60                      0                       # What write queue length does an incoming req see
system.mem_ctrls.wrQLenPdf::61                      0                       # What write queue length does an incoming req see
system.mem_ctrls.wrQLenPdf::62                      0                       # What write queue length does an incoming req see
system.mem_ctrls.wrQLenPdf::63                      0                       # What write queue length does an incoming req see
system.mem_ctrls.rdPerTurnAround::samples            5                       # Reads before turning the bus around for writes
system.mem_ctrls.rdPerTurnAround::mean     114.600000                       # Reads before turning the bus around for writes
system.mem_ctrls.rdPerTurnAround::gmean     52.684045                       # Reads before turning the bus around for writes
system.mem_ctrls.rdPerTurnAround::stdev    186.963365                       # Reads before turning the bus around for writes
system.mem_ctrls.rdPerTurnAround::16-31             3     60.00%     60.00% # Reads before turning the bus around for writes
system.mem_ctrls.rdPerTurnAround::32-47             1     20.00%     80.00% # Reads before turning the bus around for writes
system.mem_ctrls.rdPerTurnAround::448-463            1     20.00%    100.00% # Reads before turning the bus around for writes
system.mem_ctrls.rdPerTurnAround::total             5                       # Reads before turning the bus around for writes
system.mem_ctrls.wrPerTurnAround::samples            5                       # Writes before turning the bus around for reads
system.mem_ctrls.wrPerTurnAround::mean             16                       # Writes before turning the bus around for reads
system.mem_ctrls.wrPerTurnAround::gmean     16.000000                       # Writes before turning the bus around for reads
system.mem_ctrls.wrPerTurnAround::16                5    100.00%    100.00% # Writes before turning the bus around for reads
system.mem_ctrls.wrPerTurnAround::total             5                       # Writes before turning the bus around for reads
system.mem_ctrls.bytesReadWrQ                    3008                       # Total number of bytes read from write queue
system.mem_ctrls.bytesReadSys                   43072                       # Total read bytes from the system interface side
system.mem_ctrls.bytesWrittenSys                 9216                       # Total written bytes from the system interface side
system.mem_ctrls.avgRdBWSys                   1166.09                       # Average system read bandwidth in MiByte/s
system.mem_ctrls.avgWrBWSys                    249.51                       # Average system write bandwidth in MiByte/s
system.mem_ctrls.totGap                      36932750                       # Total gap between requests
system.mem_ctrls.avgGap                      45205.32                       # Average gap between requests
system.mem_ctrls.requestorReadBytes::.cpu.inst        27520                       # Per-requestor bytes read from memory
system.mem_ctrls.requestorReadBytes::.cpu.data        12544                       # Per-requestor bytes read from memory
system.mem_ctrls.requestorWriteBytes::.writebacks         5120                       # Per-requestor bytes write to memory
system.mem_ctrls.requestorReadRate::.cpu.inst 745052386.495925426483                       # Per-requestor bytes read from memory rate (Bytes/sec)
system.mem_ctrls.requestorReadRate::.cpu.data 339605273.844654381275                       # Per-requestor bytes read from memory rate (Bytes/sec)
system.mem_ctrls.requestorWriteRate::.writebacks 138614397.487614035606                       # Per-requestor bytes write to memory rate (Bytes/sec)
system.mem_ctrls.requestorReadAccesses::.cpu.inst          477                       # Per-requestor read serviced memory accesses
system.mem_ctrls.requestorReadAccesses::.cpu.data          196                       # Per-requestor read serviced memory accesses
system.mem_ctrls.requestorWriteAccesses::.writebacks          144                       # Per-requestor write serviced memory accesses
system.mem_ctrls.requestorReadTotalLat::.cpu.inst     10705000                       # Per-requestor read total memory access latency
system.mem_ctrls.requestorReadTotalLat::.cpu.data      5316000                       # Per-requestor read total memory access latency
system.mem_ctrls.requestorWriteTotalLat::.writebacks    367647250                       # Per-requestor write total memory access latency
system.mem_ctrls.requestorReadAvgLat::.cpu.inst     22442.35                       # Per-requestor read average memory access latency
system.mem_ctrls.requestorReadAvgLat::.cpu.data     27122.45                       # Per-requestor read average memory access latency
system.mem_ctrls.requestorWriteAvgLat::.writebacks   2553105.90                       # Per-requestor write average memory access latency
system.mem_ctrls.dram.bytes_read::.cpu.inst        30528                       # Number of bytes read from this memory
system.mem_ctrls.dram.bytes_read::.cpu.data        12544                       # Number of bytes read from this memory
system.mem_ctrls.dram.bytes_read::total         43072                       # Number of bytes read from this memory
system.mem_ctrls.dram.bytes_inst_read::.cpu.inst        30528                       # Number of instructions bytes read from this memory
system.mem_ctrls.dram.bytes_inst_read::total        30528                       # Number of instructions bytes read from this memory
system.mem_ctrls.dram.num_reads::.cpu.inst          477                       # Number of read requests responded to by this memory
system.mem_ctrls.dram.num_reads::.cpu.data          196                       # Number of read requests responded to by this memory
system.mem_ctrls.dram.num_reads::total            673                       # Number of read requests responded to by this memory
system.mem_ctrls.dram.bw_read::.cpu.inst    826488345                       # Total read bandwidth from this memory (bytes/s)
system.mem_ctrls.dram.bw_read::.cpu.data    339605274                       # Total read bandwidth from this memory (bytes/s)
system.mem_ctrls.dram.bw_read::total       1166093619                       # Total read bandwidth from this memory (bytes/s)
system.mem_ctrls.dram.bw_inst_read::.cpu.inst    826488345                       # Instruction read bandwidth from this memory (bytes/s)
system.mem_ctrls.dram.bw_inst_read::total    826488345                       # Instruction read bandwidth from this memory (bytes/s)
system.mem_ctrls.dram.bw_total::.cpu.inst    826488345                       # Total bandwidth to/from this memory (bytes/s)
system.mem_ctrls.dram.bw_total::.cpu.data    339605274                       # Total bandwidth to/from this memory (bytes/s)
system.mem_ctrls.dram.bw_total::total      1166093619                       # Total bandwidth to/from this memory (bytes/s)
system.mem_ctrls.dram.readBursts                  626                       # Number of DRAM read bursts
system.mem_ctrls.dram.writeBursts                  80                       # Number of DRAM write bursts
system.mem_ctrls.dram.perBankRdBursts::0           75                       # Per bank write bursts
system.mem_ctrls.dram.perBankRdBursts::1            5                       # Per bank write bursts
system.mem_ctrls.dram.perBankRdBursts::2           25                       # Per bank write bursts
system.mem_ctrls.dram.perBankRdBursts::3           42                       # Per bank write bursts
system.mem_ctrls.dram.perBankRdBursts::4           14                       # Per bank write bursts
system.mem_ctrls.dram.perBankRdBursts::5           30                       # Per bank write bursts
system.mem_ctrls.dram.perBankRdBursts::6           52                       # Per bank write bursts
system.mem_ctrls.dram.perBankRdBursts::7           30                       # Per bank write bursts
system.mem_ctrls.dram.perBankRdBursts::8           83                       # Per bank write bursts
system.mem_ctrls.dram.perBankRdBursts::9           29                       # Per bank write bursts
system.mem_ctrls.dram.perBankRdBursts::10           71                       # Per bank write bursts
system.mem_ctrls.dram.perBankRdBursts::11           81                       # Per bank write bursts
system.mem_ctrls.dram.perBankRdBursts::12           49                       # Per bank write bursts
system.mem_ctrls.dram.perBankRdBursts::13           25                       # Per bank write bursts
system.mem_ctrls.dram.perBankRdBursts::14            8                       # Per bank write bursts
system.mem_ctrls.dram.perBankRdBursts::15            7                       # Per bank write bursts
system.mem_ctrls.dram.perBankWrBursts::0           15                       # Per bank write bursts
system.mem_ctrls.dram.perBankWrBursts::1            0                       # Per bank write bursts
system.mem_ctrls.dram.perBankWrBursts::2            2                       # Per bank write bursts
system.mem_ctrls.dram.perBankWrBursts::3            3                       # Per bank write bursts
system.mem_ctrls.dram.perBankWrBursts::4            0                       # Per bank write bursts
system.mem_ctrls.dram.perBankWrBursts::5            2                       # Per bank write bursts
system.mem_ctrls.dram.perBankWrBursts::6            3                       # Per bank write bursts
system.mem_ctrls.dram.perBankWrBursts::7            5                       # Per bank write bursts
system.mem_ctrls.dram.perBankWrBursts::8           21                       # Per bank write bursts
system.mem_ctrls.dram.perBankWrBursts::9            5                       # Per bank write bursts
system.mem_ctrls.dram.perBankWrBursts::10            0                       # Per bank write bursts
system.mem_ctrls.dram.perBankWrBursts::11            6                       # Per bank write bursts
system.mem_ctrls.dram.perBankWrBursts::12           18                       # Per bank write bursts
system.mem_ctrls.dram.perBankWrBursts::13            0                       # Per bank write bursts
system.mem_ctrls.dram.perBankWrBursts::14            0                       # Per bank write bursts
system.mem_ctrls.dram.perBankWrBursts::15            0                       # Per bank write bursts
system.mem_ctrls.dram.totQLat                 4283500                       # Total ticks spent queuing
system.mem_ctrls.dram.totBusLat               3130000                       # Total ticks spent in databus transfers
system.mem_ctrls.dram.totMemAccLat           16021000                       # Total ticks spent from burst creation until serviced by the DRAM
system.mem_ctrls.dram.avgQLat                 6842.65                       # Average queueing delay per DRAM burst
system.mem_ctrls.dram.avgBusLat               5000.00                       # Average bus latency per DRAM burst
system.mem_ctrls.dram.avgMemAccLat           25592.65                       # Average memory access latency per DRAM burst
system.mem_ctrls.dram.readRowHits                 503                       # Number of row buffer hits during reads
system.mem_ctrls.dram.writeRowHits                 63                       # Number of row buffer hits during writes
system.mem_ctrls.dram.readRowHitRate            80.35                       # Row buffer hit rate for reads
system.mem_ctrls.dram.writeRowHitRate           78.75                       # Row buffer hit rate for writes
system.mem_ctrls.dram.bytesPerActivate::samples          129                       # Bytes accessed per row activation
system.mem_ctrls.dram.bytesPerActivate::mean   324.465116                       # Bytes accessed per row activation
system.mem_ctrls.dram.bytesPerActivate::gmean   215.530281                       # Bytes accessed per row activation
system.mem_ctrls.dram.bytesPerActivate::stdev   301.164252                       # Bytes accessed per row activation
system.mem_ctrls.dram.bytesPerActivate::0-127           32     24.81%     24.81% # Bytes accessed per row activation
system.mem_ctrls.dram.bytesPerActivate::128-255           31     24.03%     48.84% # Bytes accessed per row activation
system.mem_ctrls.dram.bytesPerActivate::256-383           27     20.93%     69.77% # Bytes accessed per row activation
system.mem_ctrls.dram.bytesPerActivate::384-511           12      9.30%     79.07% # Bytes accessed per row activation
system.mem_ctrls.dram.bytesPerActivate::512-639            6      4.65%     83.72% # Bytes accessed per row activation
system.mem_ctrls.dram.bytesPerActivate::640-767            3      2.33%     86.05% # Bytes accessed per row activation
system.mem_ctrls.dram.bytesPerActivate::768-895            3      2.33%     88.37% # Bytes accessed per row activation
system.mem_ctrls.dram.bytesPerActivate::896-1023            2      1.55%     89.92% # Bytes accessed per row activation
system.mem_ctrls.dram.bytesPerActivate::1024-1151           13     10.08%    100.00% # Bytes accessed per row activation
system.mem_ctrls.dram.bytesPerActivate::total          129                       # Bytes accessed per row activation
system.mem_ctrls.dram.bytesRead                 40064                       # Total number of bytes read from DRAM
system.mem_ctrls.dram.bytesWritten               5120                       # Total number of bytes written to DRAM
system.mem_ctrls.dram.avgRdBW             1084.657660                       # Average DRAM read bandwidth in MiBytes/s
system.mem_ctrls.dram.avgWrBW              138.614397                       # Average DRAM write bandwidth in MiBytes/s
system.mem_ctrls.dram.peakBW                 12800.00                       # Theoretical peak bandwidth in MiByte/s
system.mem_ctrls.dram.busUtil                    9.56                       # Data bus utilization in percentage
system.mem_ctrls.dram.busUtilRead                8.47                       # Data bus utilization in percentage for reads
system.mem_ctrls.dram.busUtilWrite               1.08                       # Data bus utilization in percentage for writes
system.mem_ctrls.dram.pageHitRate               80.17                       # Row buffer hit rate, read and write combined
system.mem_ctrls.dram.power_state.pwrStateResidencyTicks::UNDEFINED     36937000                       # Cumulative time (in ticks) in various power states
system.mem_ctrls.dram.rank0.actEnergy          335580                       # Energy for activate commands per rank (pJ)
system.mem_ctrls.dram.rank0.preEnergy          155595                       # Energy for precharge commands per rank (pJ)
system.mem_ctrls.dram.rank0.readEnergy        1949220                       # Energy for read commands per rank (pJ)
system.mem_ctrls.dram.rank0.writeEnergy        156600                       # Energy for write commands per rank (pJ)
system.mem_ctrls.dram.rank0.refreshEnergy 2458560.000000                       # Energy for refresh commands per rank (pJ)
system.mem_ctrls.dram.rank0.actBackEnergy     14845080                       # Energy for active background per rank (pJ)
system.mem_ctrls.dram.rank0.preBackEnergy      1682880                       # Energy for precharge background per rank (pJ)
system.mem_ctrls.dram.rank0.actPowerDownEnergy            0                       # Energy for active power-down per rank (pJ)
system.mem_ctrls.dram.rank0.prePowerDownEnergy            0                       # Energy for precharge power-down per rank (pJ)
system.mem_ctrls.dram.rank0.selfRefreshEnergy            0                       # Energy for self refresh per rank (pJ)
system.mem_ctrls.dram.rank0.totalEnergy      21583515                       # Total energy per rank (pJ)
system.mem_ctrls.dram.rank0.averagePower   584.333189                       # Core power per rank (mW)
system.mem_ctrls.dram.rank0.totalIdleTime            0                       # Total Idle time Per DRAM Rank
system.mem_ctrls.dram.rank0.pwrStateTime::IDLE      4255750                       # Time in different power states
system.mem_ctrls.dram.rank0.pwrStateTime::REF      1040000                       # Time in different power states
system.mem_ctrls.dram.rank0.pwrStateTime::SREF            0                       # Time in different power states
system.mem_ctrls.dram.rank0.pwrStateTime::PRE_PDN            0                       # Time in different power states
system.mem_ctrls.dram.rank0.pwrStateTime::ACT     31641250                       # Time in different power states
system.mem_ctrls.dram.rank0.pwrStateTime::ACT_PDN            0                       # Time in different power states
system.mem_ctrls.dram.rank1.actEnergy          664020                       # Energy for activate commands per rank (pJ)
system.mem_ctrls.dram.rank1.preEnergy          333960                       # Energy for precharge commands per rank (pJ)
system.mem_ctrls.dram.rank1.readEnergy        2520420                       # Energy for read commands per rank (pJ)
system.mem_ctrls.dram.rank1.writeEnergy        261000                       # Energy for write commands per rank (pJ)
system.mem_ctrls.dram.rank1.refreshEnergy 2458560.000000                       # Energy for refresh commands per rank (pJ)
system.mem_ctrls.dram.rank1.actBackEnergy     16162920                       # Energy for active background per rank (pJ)
system.mem_ctrls.dram.rank1.preBackEnergy       573120                       # Energy for precharge background per rank (pJ)
system.mem_ctrls.dram.rank1.actPowerDownEnergy            0                       # Energy for active power-down per rank (pJ)
system.mem_ctrls.dram.rank1.prePowerDownEnergy            0                       # Energy for precharge power-down per rank (pJ)
system.mem_ctrls.dram.rank1.selfRefreshEnergy            0                       # Energy for self refresh per rank (pJ)
system.mem_ctrls.dram.rank1.totalEnergy      22974000                       # Total energy per rank (pJ)
system.mem_ctrls.dram.rank1.averagePower   621.977962                       # Core power per rank (mW)
system.mem_ctrls.dram.rank1.totalIdleTime            0                       # Total Idle time Per DRAM Rank
system.mem_ctrls.dram.rank1.pwrStateTime::IDLE      1382000                       # Time in different power states
system.mem_ctrls.dram.rank1.pwrStateTime::REF      1040000                       # Time in different power states
system.mem_ctrls.dram.rank1.pwrStateTime::SREF            0                       # Time in different power states
system.mem_ctrls.dram.rank1.pwrStateTime::PRE_PDN            0                       # Time in different power states
system.mem_ctrls.dram.rank1.pwrStateTime::ACT     34515000                       # Time in different power states
system.mem_ctrls.dram.rank1.pwrStateTime::ACT_PDN            0                       # Time in different power states
system.mem_ctrls.power_state.pwrStateResidencyTicks::UNDEFINED     36937000                       # Cumulative time (in ticks) in various power states
system.membus.trans_dist::ReadResp                603                       # Transaction distribution
system.membus.trans_dist::WritebackClean          148                       # Transaction distribution
system.membus.trans_dist::ReadExReq                70                       # Transaction distribution
system.membus.trans_dist::ReadExResp               70                       # Transaction distribution
system.membus.trans_dist::ReadCleanReq            477                       # Transaction distribution
system.membus.trans_dist::ReadSharedReq           126                       # Transaction distribution
system.membus.pkt_count_system.cpu.icache.mem_side_port::system.mem_ctrls.port         1102                       # Packet count per connected requestor and responder (bytes)
system.membus.pkt_count_system.cpu.dcache.mem_side_port::system.mem_ctrls.port          392                       # Packet count per connected requestor and responder (bytes)
system.membus.pkt_count::total                   1494                       # Packet count per connected requestor and responder (bytes)
system.membus.pkt_size_system.cpu.icache.mem_side_port::system.mem_ctrls.port        40000                       # Cumulative packet size per connected requestor and responder (bytes)
system.membus.pkt_size_system.cpu.dcache.mem_side_port::system.mem_ctrls.port        12544                       # Cumulative packet size per connected requestor and responder (bytes)
system.membus.pkt_size::total                   52544                       # Cumulative packet size per connected requestor and responder (bytes)
system.membus.snoops                                0                       # Total snoops (count)
system.membus.snoopTraffic                          0                       # Total snoop traffic (bytes)
system.membus.snoop_fanout::samples               673                       # Request fanout histogram
system.membus.snoop_fanout::mean             0.040119                       # Request fanout histogram
system.membus.snoop_fanout::stdev            0.196384                       # Request fanout histogram
system.membus.snoop_fanout::underflows              0      0.00%      0.00% # Request fanout histogram
system.membus.snoop_fanout::0                     646     95.99%     95.99% # Request fanout histogram
system.membus.snoop_fanout::1                      27      4.01%    100.00% # Request fanout histogram
system.membus.snoop_fanout::2                       0      0.00%    100.00% # Request fanout histogram
system.membus.snoop_fanout::overflows               0      0.00%    100.00% # Request fanout histogram
system.membus.snoop_fanout::min_value               0                       # Request fanout histogram
system.membus.snoop_fanout::max_value               1                       # Request fanout histogram
system.membus.snoop_fanout::total                 673                       # Request fanout histogram
system.membus.power_state.pwrStateResidencyTicks::UNDEFINED     36937000                       # Cumulative time (in ticks) in various power states
system.membus.reqLayer0.occupancy             1705250                       # Layer occupancy (ticks)
system.membus.reqLayer0.utilization               4.6                       # Layer utilization (%)
system.membus.respLayer1.occupancy            2523500                       # Layer occupancy (ticks)
system.membus.respLayer1.utilization              6.8                       # Layer utilization (%)
system.membus.respLayer2.occupancy            1057500                       # Layer occupancy (ticks)
system.membus.respLayer2.utilization              2.9                       # Layer utilization (%)
system.voltage_domain.voltage                       1                       # Voltage in Volts

---------- End Simulation Statistics   ----------
