
---------- Begin Simulation Statistics ----------
final_tick                                   54593000                       # Number of ticks from beginning of simulation (restored from checkpoints and never reset)
host_inst_rate                                 275050                       # Simulator instruction rate (inst/s)
host_mem_usage                                 644424                       # Number of bytes of host memory used
host_op_rate                                   322352                       # Simulator op (including micro ops) rate (op/s)
host_seconds                                     0.06                       # Real time elapsed on the host
host_tick_rate                              895118356                       # Simulator tick rate (ticks/s)
sim_freq                                 1000000000000                       # Frequency of simulated ticks
sim_insts                                       16738                       # Number of instructions simulated
sim_ops                                         19655                       # Number of ops (including micro ops) simulated
sim_seconds                                  0.000055                       # Number of seconds simulated
sim_ticks                                    54593000                       # Number of ticks simulated
system.cpu.Branches                              3148                       # Number of branches fetched
system.cpu.committedInsts                       16738                       # Number of instructions committed
system.cpu.committedOps                         19655                       # Number of ops (including micro ops) committed
system.cpu.idle_fraction                     0.000000                       # Percentage of idle cycles
system.cpu.not_idle_fraction                 1.000000                       # Percentage of non-idle cycles
system.cpu.numCycles                           109186                       # number of cpu cycles simulated
system.cpu.numWorkItemsCompleted                    0                       # number of work items this cpu completed
system.cpu.numWorkItemsStarted                      0                       # number of work items this cpu started
system.cpu.num_busy_cycles               109185.998000                       # Number of busy cycles
system.cpu.num_cc_register_reads                68447                       # number of times the CC registers were read
system.cpu.num_cc_register_writes                9727                       # number of times the CC registers were written
system.cpu.num_conditional_control_insts         2163                       # number of instructions that are conditional controls
system.cpu.num_fp_alu_accesses                      0                       # Number of float alu accesses
system.cpu.num_fp_insts                             0                       # number of float instructions
system.cpu.num_fp_register_reads                    0                       # number of times the floating registers were read
system.cpu.num_fp_register_writes                   0                       # number of times the floating registers were written
system.cpu.num_func_calls                         678                       # number of times a function call or return occured
system.cpu.num_idle_cycles                   0.002000                       # Number of idle cycles
system.cpu.num_int_alu_accesses                 16820                       # Number of integer alu accesses
system.cpu.num_int_insts                        16820                       # number of integer instructions
system.cpu.num_int_register_reads               32183                       # number of times the integer registers were read
system.cpu.num_int_register_writes              11813                       # number of times the integer registers were written
system.cpu.num_load_insts                        3243                       # Number of load instructions
system.cpu.num_mem_refs                          6318                       # number of memory refs
system.cpu.num_store_insts                       3075                       # Number of store instructions
system.cpu.num_vec_alu_accesses                     0                       # Number of vector alu accesses
system.cpu.num_vec_insts                            0                       # number of vector instructions
system.cpu.num_vec_register_reads                2507                       # number of times the vector registers were read
system.cpu.num_vec_register_writes               1760                       # number of times the vector registers were written
system.cpu.op_class::No_OpClass                     0      0.00%      0.00% # Class of executed instruction
system.cpu.op_class::IntAlu                     12779     64.37%     64.37% # Class of executed instruction
system.cpu.op_class::IntMult                       90      0.45%     64.83% # Class of executed instruction
system.cpu.op_class::IntDiv                         0      0.00%     64.83% # Class of executed instruction
system.cpu.op_class::FloatAdd                       0      0.00%     64.83% # Class of executed instruction
system.cpu.op_class::FloatCmp                       0      0.00%     64.83% # Class of executed instruction
system.cpu.op_class::FloatCvt                       0      0.00%     64.83% # Class of executed instruction
system.cpu.op_class::FloatMult                      0      0.00%     64.83% # Class of executed instruction
system.cpu.op_class::FloatMultAcc                   0      0.00%     64.83% # Class of executed instruction
system.cpu.op_class::FloatDiv                       0      0.00%     64.83% # Class of executed instruction
system.cpu.op_class::FloatMisc                      0      0.00%     64.83% # Class of executed instruction
system.cpu.op_class::FloatSqrt                      0      0.00%     64.83% # Class of executed instruction
system.cpu.op_class::SimdAdd                        0      0.00%     64.83% # Class of executed instruction
system.cpu.op_class::SimdAddAcc                     0      0.00%     64.83% # Class of executed instruction
system.cpu.op_class::SimdAlu                        0      0.00%     64.83% # Class of executed instruction
system.cpu.op_class::SimdCmp                        0      0.00%     64.83% # Class of executed instruction
system.cpu.op_class::SimdCvt                        0      0.00%     64.83% # Class of executed instruction
system.cpu.op_class::SimdMisc                       0      0.00%     64.83% # Class of executed instruction
system.cpu.op_class::SimdMult                       0      0.00%     64.83% # Class of executed instruction
system.cpu.op_class::SimdMultAcc                    0      0.00%     64.83% # Class of executed instruction
system.cpu.op_class::SimdShift                      0      0.00%     64.83% # Class of executed instruction
system.cpu.op_class::SimdShiftAcc                   0      0.00%     64.83% # Class of executed instruction
system.cpu.op_class::SimdDiv                        0      0.00%     64.83% # Class of executed instruction
system.cpu.op_class::SimdSqrt                       0      0.00%     64.83% # Class of executed instruction
system.cpu.op_class::SimdFloatAdd                 178      0.90%     65.72% # Class of executed instruction
system.cpu.op_class::SimdFloatAlu                   0      0.00%     65.72% # Class of executed instruction
system.cpu.op_class::SimdFloatCmp                   0      0.00%     65.72% # Class of executed instruction
system.cpu.op_class::SimdFloatCvt                  29      0.15%     65.87% # Class of executed instruction
system.cpu.op_class::SimdFloatDiv                   0      0.00%     65.87% # Class of executed instruction
system.cpu.op_class::SimdFloatMisc                205      1.03%     66.90% # Class of executed instruction
system.cpu.op_class::SimdFloatMult                 89      0.45%     67.35% # Class of executed instruction
system.cpu.op_class::SimdFloatMultAcc             163      0.82%     68.17% # Class of executed instruction
system.cpu.op_class::SimdFloatSqrt                  0      0.00%     68.17% # Class of executed instruction
system.cpu.op_class::SimdReduceAdd                  0      0.00%     68.17% # Class of executed instruction
system.cpu.op_class::SimdReduceAlu                  0      0.00%     68.17% # Class of executed instruction
system.cpu.op_class::SimdReduceCmp                  0      0.00%     68.17% # Class of executed instruction
system.cpu.op_class::SimdFloatReduceAdd             0      0.00%     68.17% # Class of executed instruction
system.cpu.op_class::SimdFloatReduceCmp             0      0.00%     68.17% # Class of executed instruction
system.cpu.op_class::SimdAes                        0      0.00%     68.17% # Class of executed instruction
system.cpu.op_class::SimdAesMix                     0      0.00%     68.17% # Class of executed instruction
system.cpu.op_class::SimdSha1Hash                   0      0.00%     68.17% # Class of executed instruction
system.cpu.op_class::SimdSha1Hash2                  0      0.00%     68.17% # Class of executed instruction
system.cpu.op_class::SimdSha256Hash                 0      0.00%     68.17% # Class of executed instruction
system.cpu.op_class::SimdSha256Hash2                0      0.00%     68.17% # Class of executed instruction
system.cpu.op_class::SimdShaSigma2                  0      0.00%     68.17% # Class of executed instruction
system.cpu.op_class::SimdShaSigma3                  0      0.00%     68.17% # Class of executed instruction
system.cpu.op_class::SimdPredAlu                    0      0.00%     68.17% # Class of executed instruction
system.cpu.op_class::MemRead                     3243     16.34%     84.51% # Class of executed instruction
system.cpu.op_class::MemWrite                    3075     15.49%    100.00% # Class of executed instruction
system.cpu.op_class::FloatMemRead                   0      0.00%    100.00% # Class of executed instruction
system.cpu.op_class::FloatMemWrite                  0      0.00%    100.00% # Class of executed instruction
system.cpu.op_class::IprAccess                      0      0.00%    100.00% # Class of executed instruction
system.cpu.op_class::InstPrefetch                   0      0.00%    100.00% # Class of executed instruction
system.cpu.op_class::total                      19851                       # Class of executed instruction
system.cpu.workload.numSyscalls                    20                       # Number of system calls
system.membus.snoop_filter.hit_multi_requests            1                       # Number of requests hitting in the snoop filter with multiple (>1) holders of the requested data.
system.membus.snoop_filter.hit_multi_snoops            0                       # Number of snoops hitting in the snoop filter with multiple (>1) holders of the requested data.
system.membus.snoop_filter.hit_single_requests           74                       # Number of requests hitting in the snoop filter with a single holder of the requested data.
system.membus.snoop_filter.hit_single_snoops            0                       # Number of snoops hitting in the snoop filter with a single holder of the requested data.
system.membus.snoop_filter.tot_requests           568                       # Total number of requests made to the snoop filter.
system.membus.snoop_filter.tot_snoops               0                       # Total number of snoops made to the snoop filter.
system.clk_domain.clock                          1000                       # Clock period in ticks
system.cpu.dcache.demand_hits::.cpu.data         5895                       # number of demand (read+write) hits
system.cpu.dcache.demand_hits::total             5895                       # number of demand (read+write) hits
system.cpu.dcache.overall_hits::.cpu.data         5916                       # number of overall hits
system.cpu.dcache.overall_hits::total            5916                       # number of overall hits
system.cpu.dcache.demand_misses::.cpu.data          179                       # number of demand (read+write) misses
system.cpu.dcache.demand_misses::total            179                       # number of demand (read+write) misses
system.cpu.dcache.overall_misses::.cpu.data          187                       # number of overall misses
system.cpu.dcache.overall_misses::total           187                       # number of overall misses
system.cpu.dcache.demand_miss_latency::.cpu.data     10144000                       # number of demand (read+write) miss cycles
system.cpu.dcache.demand_miss_latency::total     10144000                       # number of demand (read+write) miss cycles
system.cpu.dcache.overall_miss_latency::.cpu.data     10144000                       # number of overall miss cycles
system.cpu.dcache.overall_miss_latency::total     10144000                       # number of overall miss cycles
system.cpu.dcache.demand_accesses::.cpu.data         6074                       # number of demand (read+write) accesses
system.cpu.dcache.demand_accesses::total         6074                       # number of demand (read+write) accesses
system.cpu.dcache.overall_accesses::.cpu.data         6103                       # number of overall (read+write) accesses
system.cpu.dcache.overall_accesses::total         6103                       # number of overall (read+write) accesses
system.cpu.dcache.demand_miss_rate::.cpu.data     0.029470                       # miss rate for demand accesses
system.cpu.dcache.demand_miss_rate::total     0.029470                       # miss rate for demand accesses
system.cpu.dcache.overall_miss_rate::.cpu.data     0.030641                       # miss rate for overall accesses
system.cpu.dcache.overall_miss_rate::total     0.030641                       # miss rate for overall accesses
system.cpu.dcache.demand_avg_miss_latency::.cpu.data 56670.391061                       # average overall miss latency
system.cpu.dcache.demand_avg_miss_latency::total 56670.391061                       # average overall miss latency
system.cpu.dcache.overall_avg_miss_latency::.cpu.data 54245.989305                       # average overall miss latency
system.cpu.dcache.overall_avg_miss_latency::total 54245.989305                       # average overall miss latency
system.cpu.dcache.blocked_cycles::no_mshrs            0                       # number of cycles access was blocked
system.cpu.dcache.blocked_cycles::no_targets            0                       # number of cycles access was blocked
system.cpu.dcache.blocked::no_mshrs                 0                       # number of cycles access was blocked
system.cpu.dcache.blocked::no_targets               0                       # number of cycles access was blocked
system.cpu.dcache.avg_blocked_cycles::no_mshrs          nan                       # average number of cycles each access was blocked
system.cpu.dcache.avg_blocked_cycles::no_targets          nan                       # average number of cycles each access was blocked
system.cpu.dcache.demand_mshr_hits::.cpu.data            1                       # number of demand (read+write) MSHR hits
system.cpu.dcache.demand_mshr_hits::total            1                       # number of demand (read+write) MSHR hits
system.cpu.dcache.overall_mshr_hits::.cpu.data            1                       # number of overall MSHR hits
system.cpu.dcache.overall_mshr_hits::total            1                       # number of overall MSHR hits
system.cpu.dcache.demand_mshr_misses::.cpu.data          178                       # number of demand (read+write) MSHR misses
system.cpu.dcache.demand_mshr_misses::total          178                       # number of demand (read+write) MSHR misses
system.cpu.dcache.overall_mshr_misses::.cpu.data          184                       # number of overall MSHR misses
system.cpu.dcache.overall_mshr_misses::total          184                       # number of overall MSHR misses
system.cpu.dcache.demand_mshr_miss_latency::.cpu.data      9922000                       # number of demand (read+write) MSHR miss cycles
system.cpu.dcache.demand_mshr_miss_latency::total      9922000                       # number of demand (read+write) MSHR miss cycles
system.cpu.dcache.overall_mshr_miss_latency::.cpu.data     10236000                       # number of overall MSHR miss cycles
system.cpu.dcache.overall_mshr_miss_latency::total     10236000                       # number of overall MSHR miss cycles
system.cpu.dcache.demand_mshr_miss_rate::.cpu.data     0.029305                       # mshr miss rate for demand accesses
system.cpu.dcache.demand_mshr_miss_rate::total     0.029305                       # mshr miss rate for demand accesses
system.cpu.dcache.overall_mshr_miss_rate::.cpu.data     0.030149                       # mshr miss rate for overall accesses
system.cpu.dcache.overall_mshr_miss_rate::total     0.030149                       # mshr miss rate for overall accesses
system.cpu.dcache.demand_avg_mshr_miss_latency::.cpu.data 55741.573034                       # average overall mshr miss latency
system.cpu.dcache.demand_avg_mshr_miss_latency::total 55741.573034                       # average overall mshr miss latency
system.cpu.dcache.overall_avg_mshr_miss_latency::.cpu.data 55630.434783                       # average overall mshr miss latency
system.cpu.dcache.overall_avg_mshr_miss_latency::total 55630.434783                       # average overall mshr miss latency
system.cpu.dcache.replacements                      0                       # number of replacements
system.cpu.dcache.ReadReq_hits::.cpu.data         3009                       # number of ReadReq hits
system.cpu.dcache.ReadReq_hits::total            3009                       # number of ReadReq hits
system.cpu.dcache.ReadReq_misses::.cpu.data          108                       # number of ReadReq misses
system.cpu.dcache.ReadReq_misses::total           108                       # number of ReadReq misses
system.cpu.dcache.ReadReq_miss_latency::.cpu.data      6163500                       # number of ReadReq miss cycles
system.cpu.dcache.ReadReq_miss_latency::total      6163500                       # number of ReadReq miss cycles
system.cpu.dcache.ReadReq_accesses::.cpu.data         3117                       # number of ReadReq accesses(hits+misses)
system.cpu.dcache.ReadReq_accesses::total         3117                       # number of ReadReq accesses(hits+misses)
system.cpu.dcache.ReadReq_miss_rate::.cpu.data     0.034649                       # miss rate for ReadReq accesses
system.cpu.dcache.ReadReq_miss_rate::total     0.034649                       # miss rate for ReadReq accesses
system.cpu.dcache.ReadReq_avg_miss_latency::.cpu.data 57069.444444                       # average ReadReq miss latency
system.cpu.dcache.ReadReq_avg_miss_latency::total 57069.444444                       # average ReadReq miss latency
system.cpu.dcache.ReadReq_mshr_hits::.cpu.data            1                       # number of ReadReq MSHR hits
system.cpu.dcache.ReadReq_mshr_hits::total            1                       # number of ReadReq MSHR hits
system.cpu.dcache.ReadReq_mshr_misses::.cpu.data          107                       # number of ReadReq MSHR misses
system.cpu.dcache.ReadReq_mshr_misses::total          107                       # number of ReadReq MSHR misses
system.cpu.dcache.ReadReq_mshr_miss_latency::.cpu.data      6012500                       # number of ReadReq MSHR miss cycles
system.cpu.dcache.ReadReq_mshr_miss_latency::total      6012500                       # number of ReadReq MSHR miss cycles
system.cpu.dcache.ReadReq_mshr_miss_rate::.cpu.data     0.034328                       # mshr miss rate for ReadReq accesses
system.cpu.dcache.ReadReq_mshr_miss_rate::total     0.034328                       # mshr miss rate for ReadReq accesses
system.cpu.dcache.ReadReq_avg_mshr_miss_latency::.cpu.data 56191.588785                       # average ReadReq mshr miss latency
system.cpu.dcache.ReadReq_avg_mshr_miss_latency::total 56191.588785                       # average ReadReq mshr miss latency
system.cpu.dcache.WriteReq_hits::.cpu.data         2886                       # number of WriteReq hits
system.cpu.dcache.WriteReq_hits::total           2886                       # number of WriteReq hits
system.cpu.dcache.WriteReq_misses::.cpu.data           71                       # number of WriteReq misses
system.cpu.dcache.WriteReq_misses::total           71                       # number of WriteReq misses
system.cpu.dcache.WriteReq_miss_latency::.cpu.data      3980500                       # number of WriteReq miss cycles
system.cpu.dcache.WriteReq_miss_latency::total      3980500                       # number of WriteReq miss cycles
system.cpu.dcache.WriteReq_accesses::.cpu.data         2957                       # number of WriteReq accesses(hits+misses)
system.cpu.dcache.WriteReq_accesses::total         2957                       # number of WriteReq accesses(hits+misses)
system.cpu.dcache.WriteReq_miss_rate::.cpu.data     0.024011                       # miss rate for WriteReq accesses
system.cpu.dcache.WriteReq_miss_rate::total     0.024011                       # miss rate for WriteReq accesses
system.cpu.dcache.WriteReq_avg_miss_latency::.cpu.data 56063.380282                       # average WriteReq miss latency
system.cpu.dcache.WriteReq_avg_miss_latency::total 56063.380282                       # average WriteReq miss latency
system.cpu.dcache.WriteReq_mshr_misses::.cpu.data           71                       # number of WriteReq MSHR misses
system.cpu.dcache.WriteReq_mshr_misses::total           71                       # number of WriteReq MSHR misses
system.cpu.dcache.WriteReq_mshr_miss_latency::.cpu.data      3909500                       # number of WriteReq MSHR miss cycles
system.cpu.dcache.WriteReq_mshr_miss_latency::total      3909500                       # number of WriteReq MSHR miss cycles
system.cpu.dcache.WriteReq_mshr_miss_rate::.cpu.data     0.024011                       # mshr miss rate for WriteReq accesses
system.cpu.dcache.WriteReq_mshr_miss_rate::total     0.024011                       # mshr miss rate for WriteReq accesses
system.cpu.dcache.WriteReq_avg_mshr_miss_latency::.cpu.data 55063.380282                       # average WriteReq mshr miss latency
system.cpu.dcache.WriteReq_avg_mshr_miss_latency::total 55063.380282                       # average WriteReq mshr miss latency
system.cpu.dcache.SoftPFReq_hits::.cpu.data           21                       # number of SoftPFReq hits
system.cpu.dcache.SoftPFReq_hits::total            21                       # number of SoftPFReq hits
system.cpu.dcache.SoftPFReq_misses::.cpu.data            8                       # number of SoftPFReq misses
system.cpu.dcache.SoftPFReq_misses::total            8                       # number of SoftPFReq misses
system.cpu.dcache.SoftPFReq_accesses::.cpu.data           29                       # number of SoftPFReq accesses(hits+misses)
system.cpu.dcache.SoftPFReq_accesses::total           29                       # number of SoftPFReq accesses(hits+misses)
system.cpu.dcache.SoftPFReq_miss_rate::.cpu.data     0.275862                       # miss rate for SoftPFReq accesses
system.cpu.dcache.SoftPFReq_miss_rate::total     0.275862                       # miss rate for SoftPFReq accesses
system.cpu.dcache.SoftPFReq_mshr_misses::.cpu.data            6                       # number of SoftPFReq MSHR misses
system.cpu.dcache.SoftPFReq_mshr_misses::total            6                       # number of SoftPFReq MSHR misses
system.cpu.dcache.SoftPFReq_mshr_miss_latency::.cpu.data       314000                       # number of SoftPFReq MSHR miss cycles
system.cpu.dcache.SoftPFReq_mshr_miss_latency::total       314000                       # number of SoftPFReq MSHR miss cycles
system.cpu.dcache.SoftPFReq_mshr_miss_rate::.cpu.data     0.206897                       # mshr miss rate for SoftPFReq accesses
system.cpu.dcache.SoftPFReq_mshr_miss_rate::total     0.206897                       # mshr miss rate for SoftPFReq accesses
system.cpu.dcache.SoftPFReq_avg_mshr_miss_latency::.cpu.data 52333.333333                       # average SoftPFReq mshr miss latency
system.cpu.dcache.SoftPFReq_avg_mshr_miss_latency::total 52333.333333                       # average SoftPFReq mshr miss latency
system.cpu.dcache.LoadLockedReq_hits::.cpu.data           36                       # number of LoadLockedReq hits
system.cpu.dcache.LoadLockedReq_hits::total           36                       # number of LoadLockedReq hits
system.cpu.dcache.LoadLockedReq_accesses::.cpu.data           36                       # number of LoadLockedReq accesses(hits+misses)
system.cpu.dcache.LoadLockedReq_accesses::total           36                       # number of LoadLockedReq accesses(hits+misses)
system.cpu.dcache.StoreCondReq_hits::.cpu.data           36                       # number of StoreCondReq hits
system.cpu.dcache.StoreCondReq_hits::total           36                       # number of StoreCondReq hits
system.cpu.dcache.StoreCondReq_accesses::.cpu.data           36                       # number of StoreCondReq accesses(hits+misses)
system.cpu.dcache.StoreCondReq_accesses::total           36                       # number of StoreCondReq accesses(hits+misses)
system.cpu.dcache.power_state.pwrStateResidencyTicks::UNDEFINED     54593000                       # Cumulative time (in ticks) in various power states
system.cpu.dcache.tags.tagsinuse           116.253367                       # Cycle average of tags in use
system.cpu.dcache.tags.total_refs                6172                       # Total number of references to valid blocks.
system.cpu.dcache.tags.sampled_refs               184                       # Sample count of references to valid blocks.
system.cpu.dcache.tags.avg_refs             33.543478                       # Average number of references to valid blocks.
system.cpu.dcache.tags.warmup_cycle            148000                       # Cycle when the warmup percentage was hit.
system.cpu.dcache.tags.occ_blocks::.cpu.data   116.253367                       # Average occupied blocks per requestor
system.cpu.dcache.tags.occ_percent::.cpu.data     0.113529                       # Average percentage of cache occupancy
system.cpu.dcache.tags.occ_percent::total     0.113529                       # Average percentage of cache occupancy
system.cpu.dcache.tags.occ_task_id_blocks::1024          184                       # Occupied blocks per task id
system.cpu.dcache.tags.age_task_id_blocks_1024::0           17                       # Occupied blocks per task id
system.cpu.dcache.tags.age_task_id_blocks_1024::1          167                       # Occupied blocks per task id
system.cpu.dcache.tags.occ_task_id_percent::1024     0.179688                       # Percentage of cache occupancy per task id
system.cpu.dcache.tags.tag_accesses             12534                       # Number of tag accesses
system.cpu.dcache.tags.data_accesses            12534                       # Number of data accesses
system.cpu.dcache.tags.power_state.pwrStateResidencyTicks::UNDEFINED     54593000                       # Cumulative time (in ticks) in various power states
system.cpu.dtb.instHits                             0                       # ITB inst hits
system.cpu.dtb.instMisses                           0                       # ITB inst misses
system.cpu.dtb.readHits                             0                       # DTB read hits
system.cpu.dtb.readMisses                           0                       # DTB read misses
system.cpu.dtb.writeHits                            0                       # DTB write hits
system.cpu.dtb.writeMisses                          0                       # DTB write misses
system.cpu.dtb.inserts                              0                       # Number of times an entry is inserted into the TLB
system.cpu.dtb.flushTlb                             0                       # Number of times complete TLB was flushed
system.cpu.dtb.flushTlbMva                          0                       # Number of times TLB was flushed by MVA
system.cpu.dtb.flushTlbMvaAsid                      0                       # Number of times TLB was flushed by MVA & ASID
system.cpu.dtb.flushTlbAsid                         0                       # Number of times TLB was flushed by ASID
system.cpu.dtb.flushedEntries                       0                       # Number of entries that have been flushed from TLB
system.cpu.dtb.alignFaults                          0                       # Number of TLB faults due to alignment restrictions
system.cpu.dtb.prefetchFaults                       0                       # Number of TLB faults due to prefetch
system.cpu.dtb.domainFaults                         0                       # Number of TLB faults due to domain restrictions
system.cpu.dtb.permsFaults                          0                       # Number of TLB faults due to permissions restrictions
system.cpu.dtb.readAccesses                         0                       # DTB read accesses
system.cpu.dtb.writeAccesses                        0                       # DTB write accesses
system.cpu.dtb.instAccesses                         0                       # ITB inst accesses
system.cpu.dtb.hits                                 0                       # Total TLB (inst and data) hits
system.cpu.dtb.misses                               0                       # Total TLB (inst and data) misses
system.cpu.dtb.accesses                             0                       # Total TLB (inst and data) accesses
system.cpu.dtb.stage2_mmu.stage2_tlb.instHits            0                       # ITB inst hits
system.cpu.dtb.stage2_mmu.stage2_tlb.instMisses            0                       # ITB inst misses
system.cpu.dtb.stage2_mmu.stage2_tlb.readHits            0                       # DTB read hits
system.cpu.dtb.stage2_mmu.stage2_tlb.readMisses            0                       # DTB read misses
system.cpu.dtb.stage2_mmu.stage2_tlb.writeHits            0                       # DTB write hits
system.cpu.dtb.stage2_mmu.stage2_tlb.writeMisses            0                       # DTB write misses
system.cpu.dtb.stage2_mmu.stage2_tlb.inserts            0                       # Number of times an entry is inserted into the TLB
system.cpu.dtb.stage2_mmu.stage2_tlb.flushTlb            0                       # Number of times complete TLB was flushed
system.cpu.dtb.stage2_mmu.stage2_tlb.flushTlbMva            0                       # Number of times TLB was flushed by MVA
system.cpu.dtb.stage2_mmu.stage2_tlb.flushTlbMvaAsid            0                       # Number of times TLB was flushed by MVA & ASID
system.cpu.dtb.stage2_mmu.stage2_tlb.flushTlbAsid            0                       # Number of times TLB was flushed by ASID
system.cpu.dtb.stage2_mmu.stage2_tlb.flushedEntries            0                       # Number of entries that have been flushed from TLB
system.cpu.dtb.stage2_mmu.stage2_tlb.alignFaults            0                       # Number of TLB faults due to alignment restrictions
system.cpu.dtb.stage2_mmu.stage2_tlb.prefetchFaults            0                       # Number of TLB faults due to prefetch
system.cpu.dtb.stage2_mmu.stage2_tlb.domainFaults            0                       # Number of TLB faults due to domain restrictions
system.cpu.dtb.stage2_mmu.stage2_tlb.permsFaults            0                       # Number of TLB faults due to permissions restrictions
system.cpu.dtb.stage2_mmu.stage2_tlb.readAccesses            0                       # DTB read accesses
system.cpu.dtb.stage2_mmu.stage2_tlb.writeAccesses            0                       # DTB write accesses
system.cpu.dtb.stage2_mmu.stage2_tlb.instAccesses            0                       # ITB inst accesses
system.cpu.dtb.stage2_mmu.stage2_tlb.hits            0                       # Total TLB (inst and data) hits
system.cpu.dtb.stage2_mmu.stage2_tlb.misses            0                       # Total TLB (inst and data) misses
system.cpu.dtb.stage2_mmu.stage2_tlb.accesses            0                       # Total TLB (inst and data) accesses
system.cpu.dtb.stage2_mmu.stage2_tlb.walker.walks            0                       # Table walker walks requested
system.cpu.dtb.stage2_mmu.stage2_tlb.walker.requestOrigin_Requested::Data            0                       # Table walker requests started/completed, data/inst
system.cpu.dtb.stage2_mmu.stage2_tlb.walker.requestOrigin_Requested::Inst            0                       # Table walker requests started/completed, data/inst
system.cpu.dtb.stage2_mmu.stage2_tlb.walker.requestOrigin_Requested::total            0                       # Table walker requests started/completed, data/inst
system.cpu.dtb.stage2_mmu.stage2_tlb.walker.requestOrigin_Completed::Data            0                       # Table walker requests started/completed, data/inst
system.cpu.dtb.stage2_mmu.stage2_tlb.walker.requestOrigin_Completed::Inst            0                       # Table walker requests started/completed, data/inst
system.cpu.dtb.stage2_mmu.stage2_tlb.walker.requestOrigin_Completed::total            0                       # Table walker requests started/completed, data/inst
system.cpu.dtb.stage2_mmu.stage2_tlb.walker.requestOrigin::total            0                       # Table walker requests started/completed, data/inst
system.cpu.dtb.stage2_mmu.stage2_tlb.walker.power_state.pwrStateResidencyTicks::UNDEFINED     54593000                       # Cumulative time (in ticks) in various power states
system.cpu.dtb.walker.walks                         0                       # Table walker walks requested
system.cpu.dtb.walker.requestOrigin_Requested::Data            0                       # Table walker requests started/completed, data/inst
system.cpu.dtb.walker.requestOrigin_Requested::Inst            0                       # Table walker requests started/completed, data/inst
system.cpu.dtb.walker.requestOrigin_Requested::total            0                       # Table walker requests started/completed, data/inst
system.cpu.dtb.walker.requestOrigin_Completed::Data            0                       # Table walker requests started/completed, data/inst
system.cpu.dtb.walker.requestOrigin_Completed::Inst            0                       # Table walker requests started/completed, data/inst
system.cpu.dtb.walker.requestOrigin_Completed::total            0                       # Table walker requests started/completed, data/inst
system.cpu.dtb.walker.requestOrigin::total            0                       # Table walker requests started/completed, data/inst
system.cpu.dtb.walker.power_state.pwrStateResidencyTicks::UNDEFINED     54593000                       # Cumulative time (in ticks) in various power states
system.cpu.icache.demand_hits::.cpu.inst        19522                       # number of demand (read+write) hits
system.cpu.icache.demand_hits::total            19522                       # number of demand (read+write) hits
system.cpu.icache.overall_hits::.cpu.inst        19522                       # number of overall hits
system.cpu.icache.overall_hits::total           19522                       # number of overall hits
system.cpu.icache.demand_misses::.cpu.inst          324                       # number of demand (read+write) misses
system.cpu.icache.demand_misses::total            324                       # number of demand (read+write) misses
system.cpu.icache.overall_misses::.cpu.inst          324                       # number of overall misses
system.cpu.icache.overall_misses::total           324                       # number of overall misses
system.cpu.icache.demand_miss_latency::.cpu.inst     18159000                       # number of demand (read+write) miss cycles
system.cpu.icache.demand_miss_latency::total     18159000                       # number of demand (read+write) miss cycles
system.cpu.icache.overall_miss_latency::.cpu.inst     18159000                       # number of overall miss cycles
system.cpu.icache.overall_miss_latency::total     18159000                       # number of overall miss cycles
system.cpu.icache.demand_accesses::.cpu.inst        19846                       # number of demand (read+write) accesses
system.cpu.icache.demand_accesses::total        19846                       # number of demand (read+write) accesses
system.cpu.icache.overall_accesses::.cpu.inst        19846                       # number of overall (read+write) accesses
system.cpu.icache.overall_accesses::total        19846                       # number of overall (read+write) accesses
system.cpu.icache.demand_miss_rate::.cpu.inst     0.016326                       # miss rate for demand accesses
system.cpu.icache.demand_miss_rate::total     0.016326                       # miss rate for demand accesses
system.cpu.icache.overall_miss_rate::.cpu.inst     0.016326                       # miss rate for overall accesses
system.cpu.icache.overall_miss_rate::total     0.016326                       # miss rate for overall accesses
system.cpu.icache.demand_avg_miss_latency::.cpu.inst 56046.296296                       # average overall miss latency
system.cpu.icache.demand_avg_miss_latency::total 56046.296296                       # average overall miss latency
system.cpu.icache.overall_avg_miss_latency::.cpu.inst 56046.296296                       # average overall miss latency
system.cpu.icache.overall_avg_miss_latency::total 56046.296296                       # average overall miss latency
system.cpu.icache.blocked_cycles::no_mshrs            0                       # number of cycles access was blocked
system.cpu.icache.blocked_cycles::no_targets            0                       # number of cycles access was blocked
system.cpu.icache.blocked::no_mshrs                 0                       # number of cycles access was blocked
system.cpu.icache.blocked::no_targets               0                       # number of cycles access was blocked
system.cpu.icache.avg_blocked_cycles::no_mshrs          nan                       # average number of cycles each access was blocked
system.cpu.icache.avg_blocked_cycles::no_targets          nan                       # average number of cycles each access was blocked
system.cpu.icache.writebacks::.writebacks           60                       # number of writebacks
system.cpu.icache.writebacks::total                60                       # number of writebacks
system.cpu.icache.demand_mshr_misses::.cpu.inst          324                       # number of demand (read+write) MSHR misses
system.cpu.icache.demand_mshr_misses::total          324                       # number of demand (read+write) MSHR misses
system.cpu.icache.overall_mshr_misses::.cpu.inst          324                       # number of overall MSHR misses
system.cpu.icache.overall_mshr_misses::total          324                       # number of overall MSHR misses
system.cpu.icache.demand_mshr_miss_latency::.cpu.inst     17835000                       # number of demand (read+write) MSHR miss cycles
system.cpu.icache.demand_mshr_miss_latency::total     17835000                       # number of demand (read+write) MSHR miss cycles
system.cpu.icache.overall_mshr_miss_latency::.cpu.inst     17835000                       # number of overall MSHR miss cycles
system.cpu.icache.overall_mshr_miss_latency::total     17835000                       # number of overall MSHR miss cycles
system.cpu.icache.demand_mshr_miss_rate::.cpu.inst     0.016326                       # mshr miss rate for demand accesses
system.cpu.icache.demand_mshr_miss_rate::total     0.016326                       # mshr miss rate for demand accesses
system.cpu.icache.overall_mshr_miss_rate::.cpu.inst     0.016326                       # mshr miss rate for overall accesses
system.cpu.icache.overall_mshr_miss_rate::total     0.016326                       # mshr miss rate for overall accesses
system.cpu.icache.demand_avg_mshr_miss_latency::.cpu.inst 55046.296296                       # average overall mshr miss latency
system.cpu.icache.demand_avg_mshr_miss_latency::total 55046.296296                       # average overall mshr miss latency
system.cpu.icache.overall_avg_mshr_miss_latency::.cpu.inst 55046.296296                       # average overall mshr miss latency
system.cpu.icache.overall_avg_mshr_miss_latency::total 55046.296296                       # average overall mshr miss latency
system.cpu.icache.replacements                     60                       # number of replacements
system.cpu.icache.ReadReq_hits::.cpu.inst        19522                       # number of ReadReq hits
system.cpu.icache.ReadReq_hits::total           19522                       # number of ReadReq hits
system.cpu.icache.ReadReq_misses::.cpu.inst          324                       # number of ReadReq misses
system.cpu.icache.ReadReq_misses::total           324                       # number of ReadReq misses
system.cpu.icache.ReadReq_miss_latency::.cpu.inst     18159000                       # number of ReadReq miss cycles
system.cpu.icache.ReadReq_miss_latency::total     18159000                       # number of ReadReq miss cycles
system.cpu.icache.ReadReq_accesses::.cpu.inst        19846                       # number of ReadReq accesses(hits+misses)
system.cpu.icache.ReadReq_accesses::total        19846                       # number of ReadReq accesses(hits+misses)
system.cpu.icache.ReadReq_miss_rate::.cpu.inst     0.016326                       # miss rate for ReadReq accesses
system.cpu.icache.ReadReq_miss_rate::total     0.016326                       # miss rate for ReadReq accesses
system.cpu.icache.ReadReq_avg_miss_latency::.cpu.inst 56046.296296                       # average ReadReq miss latency
system.cpu.icache.ReadReq_avg_miss_latency::total 56046.296296                       # average ReadReq miss latency
system.cpu.icache.ReadReq_mshr_misses::.cpu.inst          324                       # number of ReadReq MSHR misses
system.cpu.icache.ReadReq_mshr_misses::total          324                       # number of ReadReq MSHR misses
system.cpu.icache.ReadReq_mshr_miss_latency::.cpu.inst     17835000                       # number of ReadReq MSHR miss cycles
system.cpu.icache.ReadReq_mshr_miss_latency::total     17835000                       # number of ReadReq MSHR miss cycles
system.cpu.icache.ReadReq_mshr_miss_rate::.cpu.inst     0.016326                       # mshr miss rate for ReadReq accesses
system.cpu.icache.ReadReq_mshr_miss_rate::total     0.016326                       # mshr miss rate for ReadReq accesses
system.cpu.icache.ReadReq_avg_mshr_miss_latency::.cpu.inst 55046.296296                       # average ReadReq mshr miss latency
system.cpu.icache.ReadReq_avg_mshr_miss_latency::total 55046.296296                       # average ReadReq mshr miss latency
system.cpu.icache.power_state.pwrStateResidencyTicks::UNDEFINED     54593000                       # Cumulative time (in ticks) in various power states
system.cpu.icache.tags.tagsinuse           161.635981                       # Cycle average of tags in use
system.cpu.icache.tags.total_refs               19846                       # Total number of references to valid blocks.
system.cpu.icache.tags.sampled_refs               324                       # Sample count of references to valid blocks.
system.cpu.icache.tags.avg_refs             61.253086                       # Average number of references to valid blocks.
system.cpu.icache.tags.warmup_cycle             77000                       # Cycle when the warmup percentage was hit.
system.cpu.icache.tags.occ_blocks::.cpu.inst   161.635981                       # Average occupied blocks per requestor
system.cpu.icache.tags.occ_percent::.cpu.inst     0.315695                       # Average percentage of cache occupancy
system.cpu.icache.tags.occ_percent::total     0.315695                       # Average percentage of cache occupancy
system.cpu.icache.tags.occ_task_id_blocks::1024          264                       # Occupied blocks per task id
system.cpu.icache.tags.age_task_id_blocks_1024::0           35                       # Occupied blocks per task id
system.cpu.icache.tags.age_task_id_blocks_1024::1          229                       # Occupied blocks per task id
system.cpu.icache.tags.occ_task_id_percent::1024     0.515625                       # Percentage of cache occupancy per task id
system.cpu.icache.tags.tag_accesses             40016                       # Number of tag accesses
system.cpu.icache.tags.data_accesses            40016                       # Number of data accesses
system.cpu.icache.tags.power_state.pwrStateResidencyTicks::UNDEFINED     54593000                       # Cumulative time (in ticks) in various power states
system.cpu.itb.instHits                             0                       # ITB inst hits
system.cpu.itb.instMisses                           0                       # ITB inst misses
system.cpu.itb.readHits                             0                       # DTB read hits
system.cpu.itb.readMisses                           0                       # DTB read misses
system.cpu.itb.writeHits                            0                       # DTB write hits
system.cpu.itb.writeMisses                          0                       # DTB write misses
system.cpu.itb.inserts                              0                       # Number of times an entry is inserted into the TLB
system.cpu.itb.flushTlb                             0                       # Number of times complete TLB was flushed
system.cpu.itb.flushTlbMva                          0                       # Number of times TLB was flushed by MVA
system.cpu.itb.flushTlbMvaAsid                      0                       # Number of times TLB was flushed by MVA & ASID
system.cpu.itb.flushTlbAsid                         0                       # Number of times TLB was flushed by ASID
system.cpu.itb.flushedEntries                       0                       # Number of entries that have been flushed from TLB
system.cpu.itb.alignFaults                          0                       # Number of TLB faults due to alignment restrictions
system.cpu.itb.prefetchFaults                       0                       # Number of TLB faults due to prefetch
system.cpu.itb.domainFaults                         0                       # Number of TLB faults due to domain restrictions
system.cpu.itb.permsFaults                          0                       # Number of TLB faults due to permissions restrictions
system.cpu.itb.readAccesses                         0                       # DTB read accesses
system.cpu.itb.writeAccesses                        0                       # DTB write accesses
system.cpu.itb.instAccesses                         0                       # ITB inst accesses
system.cpu.itb.hits                                 0                       # Total TLB (inst and data) hits
system.cpu.itb.misses                               0                       # Total TLB (inst and data) misses
system.cpu.itb.accesses                             0                       # Total TLB (inst and data) accesses
system.cpu.itb.stage2_mmu.stage2_tlb.instHits            0                       # ITB inst hits
system.cpu.itb.stage2_mmu.stage2_tlb.instMisses            0                       # ITB inst misses
system.cpu.itb.stage2_mmu.stage2_tlb.readHits            0                       # DTB read hits
system.cpu.itb.stage2_mmu.stage2_tlb.readMisses            0                       # DTB read misses
system.cpu.itb.stage2_mmu.stage2_tlb.writeHits            0                       # DTB write hits
system.cpu.itb.stage2_mmu.stage2_tlb.writeMisses            0                       # DTB write misses
system.cpu.itb.stage2_mmu.stage2_tlb.inserts            0                       # Number of times an entry is inserted into the TLB
system.cpu.itb.stage2_mmu.stage2_tlb.flushTlb            0                       # Number of times complete TLB was flushed
system.cpu.itb.stage2_mmu.stage2_tlb.flushTlbMva            0                       # Number of times TLB was flushed by MVA
system.cpu.itb.stage2_mmu.stage2_tlb.flushTlbMvaAsid            0                       # Number of times TLB was flushed by MVA & ASID
system.cpu.itb.stage2_mmu.stage2_tlb.flushTlbAsid            0                       # Number of times TLB was flushed by ASID
system.cpu.itb.stage2_mmu.stage2_tlb.flushedEntries            0                       # Number of entries that have been flushed from TLB
system.cpu.itb.stage2_mmu.stage2_tlb.alignFaults            0                       # Number of TLB faults due to alignment restrictions
system.cpu.itb.stage2_mmu.stage2_tlb.prefetchFaults            0                       # Number of TLB faults due to prefetch
system.cpu.itb.stage2_mmu.stage2_tlb.domainFaults            0                       # Number of TLB faults due to domain restrictions
system.cpu.itb.stage2_mmu.stage2_tlb.permsFaults            0                       # Number of TLB faults due to permissions restrictions
system.cpu.itb.stage2_mmu.stage2_tlb.readAccesses            0                       # DTB read accesses
system.cpu.itb.stage2_mmu.stage2_tlb.writeAccesses            0                       # DTB write accesses
system.cpu.itb.stage2_mmu.stage2_tlb.instAccesses            0                       # ITB inst accesses
system.cpu.itb.stage2_mmu.stage2_tlb.hits            0                       # Total TLB (inst and data) hits
system.cpu.itb.stage2_mmu.stage2_tlb.misses            0                       # Total TLB (inst and data) misses
system.cpu.itb.stage2_mmu.stage2_tlb.accesses            0                       # Total TLB (inst and data) accesses
system.cpu.itb.stage2_mmu.stage2_tlb.walker.walks            0                       # Table walker walks requested
system.cpu.itb.stage2_mmu.stage2_tlb.walker.requestOrigin_Requested::Data            0                       # Table walker requests started/completed, data/inst
system.cpu.itb.stage2_mmu.stage2_tlb.walker.requestOrigin_Requested::Inst            0                       # Table walker requests started/completed, data/inst
system.cpu.itb.stage2_mmu.stage2_tlb.walker.requestOrigin_Requested::total            0                       # Table walker requests started/completed, data/inst
system.cpu.itb.stage2_mmu.stage2_tlb.walker.requestOrigin_Completed::Data            0                       # Table walker requests started/completed, data/inst
system.cpu.itb.stage2_mmu.stage2_tlb.walker.requestOrigin_Completed::Inst            0                       # Table walker requests started/completed, data/inst
system.cpu.itb.stage2_mmu.stage2_tlb.walker.requestOrigin_Completed::total            0                       # Table walker requests started/completed, data/inst
system.cpu.itb.stage2_mmu.stage2_tlb.walker.requestOrigin::total            0                       # Table walker requests started/completed, data/inst
system.cpu.itb.stage2_mmu.stage2_tlb.walker.power_state.pwrStateResidencyTicks::UNDEFINED     54593000                       # Cumulative time (in ticks) in various power states
system.cpu.itb.walker.walks                         0                       # Table walker walks requested
system.cpu.itb.walker.requestOrigin_Requested::Data            0                       # Table walker requests started/completed, data/inst
system.cpu.itb.walker.requestOrigin_Requested::Inst            0                       # Table walker requests started/completed, data/inst
system.cpu.itb.walker.requestOrigin_Requested::total            0                       # Table walker requests started/completed, data/inst
system.cpu.itb.walker.requestOrigin_Completed::Data            0                       # Table walker requests started/completed, data/inst
system.cpu.itb.walker.requestOrigin_Completed::Inst            0                       # Table walker requests started/completed, data/inst
system.cpu.itb.walker.requestOrigin_Completed::total            0                       # Table walker requests started/completed, data/inst
system.cpu.itb.walker.requestOrigin::total            0                       # Table walker requests started/completed, data/inst
system.cpu.itb.walker.power_state.pwrStateResidencyTicks::UNDEFINED     54593000                       # Cumulative time (in ticks) in various power states
system.cpu.power_state.pwrStateResidencyTicks::ON     54593000                       # Cumulative time (in ticks) in various power states
system.cpu.thread_0.numInsts                        0                       # Number of Instructions committed
system.cpu.thread_0.numOps                          0                       # Number of Ops committed
system.cpu.thread_0.numMemRefs                      0                       # Number of Memory References
system.cpu_clk_domain.clock                       500                       # Clock period in ticks
system.cpu_voltage_domain.voltage                   1                       # Voltage in Volts
system.mem_ctrls.avgPriority_.writebacks::samples        41.00                       # Average QoS priority value for accepted requests
system.mem_ctrls.avgPriority_.cpu.inst::samples       303.00                       # Average QoS priority value for accepted requests
system.mem_ctrls.avgPriority_.cpu.data::samples       184.00                       # Average QoS priority value for accepted requests
system.mem_ctrls.priorityMinLatency      0.000000018750                       # per QoS priority minimum request to response latency (s)
system.mem_ctrls.priorityMaxLatency      0.000066284500                       # per QoS priority maximum request to response latency (s)
system.mem_ctrls.numReadWriteTurnArounds            1                       # Number of turnarounds from READ to WRITE
system.mem_ctrls.numWriteReadTurnArounds            1                       # Number of turnarounds from WRITE to READ
system.mem_ctrls.numStayReadState                1043                       # Number of times bus staying in READ state
system.mem_ctrls.numStayWriteState                 15                       # Number of times bus staying in WRITE state
system.mem_ctrls.readReqs                         508                       # Number of read requests accepted
system.mem_ctrls.writeReqs                         59                       # Number of write requests accepted
system.mem_ctrls.readBursts                       508                       # Number of controller read bursts, including those serviced by the write queue
system.mem_ctrls.writeBursts                       59                       # Number of controller write bursts, including those merged in the write queue
system.mem_ctrls.servicedByWrQ                     21                       # Number of controller read bursts serviced by the write queue
system.mem_ctrls.mergedWrBursts                    18                       # Number of controller write bursts merged with an existing one
system.mem_ctrls.neitherReadNorWriteReqs            0                       # Number of requests that are neither read nor write
system.mem_ctrls.avgRdQLen                       1.01                       # Average read queue length when enqueuing
system.mem_ctrls.avgWrQLen                      12.57                       # Average write queue length when enqueuing
system.mem_ctrls.numRdRetry                         0                       # Number of times read queue was full causing retry
system.mem_ctrls.numWrRetry                         0                       # Number of times write queue was full causing retry
system.mem_ctrls.readPktSize::0                     0                       # Read request sizes (log2)
system.mem_ctrls.readPktSize::1                     0                       # Read request sizes (log2)
system.mem_ctrls.readPktSize::2                     0                       # Read request sizes (log2)
system.mem_ctrls.readPktSize::3                     0                       # Read request sizes (log2)
system.mem_ctrls.readPktSize::4                     0                       # Read request sizes (log2)
system.mem_ctrls.readPktSize::5                     0                       # Read request sizes (log2)
system.mem_ctrls.readPktSize::6                   508                       # Read request sizes (log2)
system.mem_ctrls.writePktSize::0                    0                       # Write request sizes (log2)
system.mem_ctrls.writePktSize::1                    0                       # Write request sizes (log2)
system.mem_ctrls.writePktSize::2                    0                       # Write request sizes (log2)
system.mem_ctrls.writePktSize::3                    0                       # Write request sizes (log2)
system.mem_ctrls.writePktSize::4                    0                       # Write request sizes (log2)
system.mem_ctrls.writePktSize::5                    0                       # Write request sizes (log2)
system.mem_ctrls.writePktSize::6                   59                       # Write request sizes (log2)
system.mem_ctrls.rdQLenPdf::0                     483                       # What read queue length does an incoming req see
system.mem_ctrls.rdQLenPdf::1                       4                       # What read queue length does an incoming req see
system.mem_ctrls.rdQLenPdf::2                       0                       # What read queue length does an incoming req see
system.mem_ctrls.rdQLenPdf::3                       0                       # What read queue length does an incoming req see
system.mem_ctrls.rdQLenPdf::4                       0                       # What read queue length does an incoming req see
system.mem_ctrls.rdQLenPdf::5                       0                       # What read queue length does an incoming req see
system.mem_ctrls.rdQLenPdf::6                       0                       # What read queue length does an incoming req see
system.mem_ctrls.rdQLenPdf::7                       0                       # What read queue length does an incoming req see
system.mem_ctrls.rdQLenPdf::8                       0                       # What read queue length does an incoming req see
system.mem_ctrls.rdQLenPdf::9                       0                       # What read queue length does an incoming req see
system.mem_ctrls.rdQLenPdf::10                      0                       # What read queue length does an incoming req see
system.mem_ctrls.rdQLenPdf::11                      0                       # What read queue length does an incoming req see
system.mem_ctrls.rdQLenPdf::12                      0                       # What read queue length does an incoming req see
system.mem_ctrls.rdQLenPdf::13                      0                       # What read queue length does an incoming req see
system.mem_ctrls.rdQLenPdf::14                      0                       # What read queue length does an incoming req see
system.mem_ctrls.rdQLenPdf::15                      0                       # What read queue length does an incoming req see
system.mem_ctrls.rdQLenPdf::16                      0                       # What read queue length does an incoming req see
system.mem_ctrls.rdQLenPdf::17                      0                       # What read queue length does an incoming req see
system.mem_ctrls.rdQLenPdf::18                      0                       # What read queue length does an incoming req see
system.mem_ctrls.rdQLenPdf::19                      0                       # What read queue length does an incoming req see
system.mem_ctrls.rdQLenPdf::20                      0                       # What read queue length does an incoming req see
system.mem_ctrls.rdQLenPdf::21                      0                       # What read queue length does an incoming req see
system.mem_ctrls.rdQLenPdf::22                      0                       # What read queue length does an incoming req see
system.mem_ctrls.rdQLenPdf::23                      0                       # What read queue length does an incoming req see
system.mem_ctrls.rdQLenPdf::24                      0                       # What read queue length does an incoming req see
system.mem_ctrls.rdQLenPdf::25                      0                       # What read queue length does an incoming req see
system.mem_ctrls.rdQLenPdf::26                      0                       # What read queue length does an incoming req see
system.mem_ctrls.rdQLenPdf::27                      0                       # What read queue length does an incoming req see
system.mem_ctrls.rdQLenPdf::28                      0                       # What read queue length does an incoming req see
system.mem_ctrls.rdQLenPdf::29                      0                       # What read queue length does an incoming req see
system.mem_ctrls.rdQLenPdf::30                      0                       # What read queue length does an incoming req see
system.mem_ctrls.rdQLenPdf::31                      0                       # What read queue length does an incoming req see
system.mem_ctrls.wrQLenPdf::0                       1                       # What write queue length does an incoming req see
system.mem_ctrls.wrQLenPdf::1                       1                       # What write queue length does an incoming req see
system.mem_ctrls.wrQLenPdf::2                       1                       # What write queue length does an incoming req see
system.mem_ctrls.wrQLenPdf::3                       1                       # What write queue length does an incoming req see
system.mem_ctrls.wrQLenPdf::4                       1                       # What write queue length does an incoming req see
system.mem_ctrls.wrQLenPdf::5                       1                       # What write queue length does an incoming req see
system.mem_ctrls.wrQLenPdf::6                       1                       # What write queue length does an incoming req see
system.mem_ctrls.wrQLenPdf::7                       1                       # What write queue length does an incoming req see
system.mem_ctrls.wrQLenPdf::8                       1                       # What write queue length does an incoming req see
system.mem_ctrls.wrQLenPdf::9                       1                       # What write queue length does an incoming req see
system.mem_ctrls.wrQLenPdf::10                      1                       # What write queue length does an incoming req see
system.mem_ctrls.wrQLenPdf::11                      1                       # What write queue length does an incoming req see
system.mem_ctrls.wrQLenPdf::12                      1                       # What write queue length does an incoming req see
system.mem_ctrls.wrQLenPdf::13                      1                       # What write queue length does an incoming req see
system.mem_ctrls.wrQLenPdf::14                      1                       # What write queue length does an incoming req see
system.mem_ctrls.wrQLenPdf::15                      1                       # What write queue length does an incoming req see
system.mem_ctrls.wrQLenPdf::16                      1                       # What write queue length does an incoming req see
system.mem_ctrls.wrQLenPdf::17                      2                       # What write queue length does an incoming req see
system.mem_ctrls.wrQLenPdf::18                      2                       # What write queue length does an incoming req see
system.mem_ctrls.wrQLenPdf::19                      2                       # What write queue length does an incoming req see
system.mem_ctrls.wrQLenPdf::20                      2                       # What write queue length does an incoming req see
system.mem_ctrls.wrQLenPdf::21                      2                       # What write queue length does an incoming req see
system.mem_ctrls.wrQLenPdf::22                      2                       # What write queue length does an incoming req see
system.mem_ctrls.wrQLenPdf::23                      2                       # What write queue length does an incoming req see
system.mem_ctrls.wrQLenPdf::24                      2                       # What write queue length does an incoming req see
system.mem_ctrls.wrQLenPdf::25                      1                       # What write queue length does an incoming req see
system.mem_ctrls.wrQLenPdf::26                      1                       # What write queue length does an incoming req see
system.mem_ctrls.wrQLenPdf::27                      1                       # What write queue length does an incoming req see
system.mem_ctrls.wrQLenPdf::28                      1                       # What write queue length does an incoming req see
system.mem_ctrls.wrQLenPdf::29                      1                       # What write queue length does an incoming req see
system.mem_ctrls.wrQLenPdf::30                      1                       # What write queue length does an incoming req see
system.mem_ctrls.wrQLenPdf::31                      1                       # What write queue length does an incoming req see
system.mem_ctrls.wrQLenPdf::32                      1                       # What write queue length does an incoming req see
system.mem_ctrls.wrQLenPdf::33                      0                       # What write queue length does an incoming req see
system.mem_ctrls.wrQLenPdf::34                      0                       # What write queue length does an incoming req see
system.mem_ctrls.wrQLenPdf::35                      0                       # What write queue length does an incoming req see
system.mem_ctrls.wrQLenPdf::36                      0                       # What write queue length does an incoming req see
system.mem_ctrls.wrQLenPdf::37                      0                       # What write queue length does an incoming req see
system.mem_ctrls.wrQLenPdf::38                      0                       # What write queue length does an incoming req see
system.mem_ctrls.wrQLenPdf::39                      0                       # What write queue length does an incoming req see
system.mem_ctrls.wrQLenPdf::40                      0                       # What write queue length does an incoming req see
system.mem_ctrls.wrQLenPdf::41                      0                       # What write queue length does an incoming req see
system.mem_ctrls.wrQLenPdf::42                      0                       # What write queue length does an incoming req see
system.mem_ctrls.wrQLenPdf::43                      0                       # What write queue length does an incoming req see
system.mem_ctrls.wrQLenPdf::44                      0                       # What write queue length does an incoming req see
system.mem_ctrls.wrQLenPdf::45                      0                       # What write queue length does an incoming req see
system.mem_ctrls.wrQLenPdf::46                      0                       # What write queue length does an incoming req see
system.mem_ctrls.wrQLenPdf::47                      0                       # What write queue length does an incoming req see
system.mem_ctrls.wrQLenPdf::48                      0                       # What write queue length does an incoming req see
system.mem_ctrls.wrQLenPdf::49                      0                       # What write queue length does an incoming req see
system.mem_ctrls.wrQLenPdf::50                      0                       # What write queue length does an incoming req see
system.mem_ctrls.wrQLenPdf::51                      0                       # What write queue length does an incoming req see
system.mem_ctrls.wrQLenPdf::52                      0                       # What write queue length does an incoming req see
system.mem_ctrls.wrQLenPdf::53                      0                       # What write queue length does an incoming req see
system.mem_ctrls.wrQLenPdf::54                      0                       # What write queue length does an incoming req see
system.mem_ctrls.wrQLenPdf::55                      0                       # What write queue length does an incoming req see
system.mem_ctrls.wrQLenPdf::56                      0                       # What write queue length does an incoming req see
system.mem_ctrls.wrQLenPdf::57                      0                       # What write queue length does an incoming req see
system.mem_ctrls.wrQLenPdf::58                      0                       # What write queue length does an incoming req see
system.mem_ctrls.wrQLenPdf::59                      0                       # What write queue length does an incoming req see
system.mem_ctrls.wrQLenPdf::60                      0                       # What write queue length does an incoming req see
system.mem_ctrls.wrQLenPdf::61                      0                       # What write queue length does an incoming req see
system.mem_ctrls.wrQLenPdf::62                      0                       # What write queue length does an incoming req see
system.mem_ctrls.wrQLenPdf::63                      0                       # What write queue length does an incoming req see
system.mem_ctrls.rdPerTurnAround::samples            1                       # Reads before turning the bus around for writes
system.mem_ctrls.rdPerTurnAround::mean            444                       # Reads before turning the bus around for writes
system.mem_ctrls.rdPerTurnAround::gmean           444                       # Reads before turning the bus around for writes
system.mem_ctrls.rdPerTurnAround::stdev           nan                       # Reads before turning the bus around for writes
system.mem_ctrls.rdPerTurnAround::432-447            1    100.00%    100.00% # Reads before turning the bus around for writes
system.mem_ctrls.rdPerTurnAround::total             1                       # Reads before turning the bus around for writes
system.mem_ctrls.wrPerTurnAround::samples            1                       # Writes before turning the bus around for reads
system.mem_ctrls.wrPerTurnAround::mean             16                       # Writes before turning the bus around for reads
system.mem_ctrls.wrPerTurnAround::gmean     16.000000                       # Writes before turning the bus around for reads
system.mem_ctrls.wrPerTurnAround::stdev           nan                       # Writes before turning the bus around for reads
system.mem_ctrls.wrPerTurnAround::16                1    100.00%    100.00% # Writes before turning the bus around for reads
system.mem_ctrls.wrPerTurnAround::total             1                       # Writes before turning the bus around for reads
system.mem_ctrls.bytesReadWrQ                    1344                       # Total number of bytes read from write queue
system.mem_ctrls.bytesReadSys                   32512                       # Total read bytes from the system interface side
system.mem_ctrls.bytesWrittenSys                 3776                       # Total written bytes from the system interface side
system.mem_ctrls.avgRdBWSys                    595.53                       # Average system read bandwidth in MiByte/s
system.mem_ctrls.avgWrBWSys                     69.17                       # Average system write bandwidth in MiByte/s
system.mem_ctrls.totGap                      54500500                       # Total gap between requests
system.mem_ctrls.avgGap                      96120.81                       # Average gap between requests
system.mem_ctrls.requestorReadBytes::.cpu.inst        19392                       # Per-requestor bytes read from memory
system.mem_ctrls.requestorReadBytes::.cpu.data        11776                       # Per-requestor bytes read from memory
system.mem_ctrls.requestorWriteBytes::.writebacks         1024                       # Per-requestor bytes write to memory
system.mem_ctrls.requestorReadRate::.cpu.inst 355210374.956496298313                       # Per-requestor bytes read from memory rate (Bytes/sec)
system.mem_ctrls.requestorReadRate::.cpu.data 215705310.204604983330                       # Per-requestor bytes read from memory rate (Bytes/sec)
system.mem_ctrls.requestorWriteRate::.writebacks 18756983.496052607894                       # Per-requestor bytes write to memory rate (Bytes/sec)
system.mem_ctrls.requestorReadAccesses::.cpu.inst          324                       # Per-requestor read serviced memory accesses
system.mem_ctrls.requestorReadAccesses::.cpu.data          184                       # Per-requestor read serviced memory accesses
system.mem_ctrls.requestorWriteAccesses::.writebacks           59                       # Per-requestor write serviced memory accesses
system.mem_ctrls.requestorReadTotalLat::.cpu.inst      7885750                       # Per-requestor read total memory access latency
system.mem_ctrls.requestorReadTotalLat::.cpu.data      4448000                       # Per-requestor read total memory access latency
system.mem_ctrls.requestorWriteTotalLat::.writebacks    347477500                       # Per-requestor write total memory access latency
system.mem_ctrls.requestorReadAvgLat::.cpu.inst     24338.73                       # Per-requestor read average memory access latency
system.mem_ctrls.requestorReadAvgLat::.cpu.data     24173.91                       # Per-requestor read average memory access latency
system.mem_ctrls.requestorWriteAvgLat::.writebacks   5889449.15                       # Per-requestor write average memory access latency
system.mem_ctrls.dram.bytes_read::.cpu.inst        20736                       # Number of bytes read from this memory
system.mem_ctrls.dram.bytes_read::.cpu.data        11776                       # Number of bytes read from this memory
system.mem_ctrls.dram.bytes_read::total         32512                       # Number of bytes read from this memory
system.mem_ctrls.dram.bytes_inst_read::.cpu.inst        20736                       # Number of instructions bytes read from this memory
system.mem_ctrls.dram.bytes_inst_read::total        20736                       # Number of instructions bytes read from this memory
system.mem_ctrls.dram.num_reads::.cpu.inst          324                       # Number of read requests responded to by this memory
system.mem_ctrls.dram.num_reads::.cpu.data          184                       # Number of read requests responded to by this memory
system.mem_ctrls.dram.num_reads::total            508                       # Number of read requests responded to by this memory
system.mem_ctrls.dram.bw_read::.cpu.inst    379828916                       # Total read bandwidth from this memory (bytes/s)
system.mem_ctrls.dram.bw_read::.cpu.data    215705310                       # Total read bandwidth from this memory (bytes/s)
system.mem_ctrls.dram.bw_read::total        595534226                       # Total read bandwidth from this memory (bytes/s)
system.mem_ctrls.dram.bw_inst_read::.cpu.inst    379828916                       # Instruction read bandwidth from this memory (bytes/s)
system.mem_ctrls.dram.bw_inst_read::total    379828916                       # Instruction read bandwidth from this memory (bytes/s)
system.mem_ctrls.dram.bw_total::.cpu.inst    379828916                       # Total bandwidth to/from this memory (bytes/s)
system.mem_ctrls.dram.bw_total::.cpu.data    215705310                       # Total bandwidth to/from this memory (bytes/s)
system.mem_ctrls.dram.bw_total::total       595534226                       # Total bandwidth to/from this memory (bytes/s)
system.mem_ctrls.dram.readBursts                  487                       # Number of DRAM read bursts
system.mem_ctrls.dram.writeBursts                  16                       # Number of DRAM write bursts
system.mem_ctrls.dram.perBankRdBursts::0           60                       # Per bank write bursts
system.mem_ctrls.dram.perBankRdBursts::1            2                       # Per bank write bursts
system.mem_ctrls.dram.perBankRdBursts::2           21                       # Per bank write bursts
system.mem_ctrls.dram.perBankRdBursts::3           29                       # Per bank write bursts
system.mem_ctrls.dram.perBankRdBursts::4            7                       # Per bank write bursts
system.mem_ctrls.dram.perBankRdBursts::5           20                       # Per bank write bursts
system.mem_ctrls.dram.perBankRdBursts::6           42                       # Per bank write bursts
system.mem_ctrls.dram.perBankRdBursts::7           22                       # Per bank write bursts
system.mem_ctrls.dram.perBankRdBursts::8           57                       # Per bank write bursts
system.mem_ctrls.dram.perBankRdBursts::9           20                       # Per bank write bursts
system.mem_ctrls.dram.perBankRdBursts::10           62                       # Per bank write bursts
system.mem_ctrls.dram.perBankRdBursts::11           71                       # Per bank write bursts
system.mem_ctrls.dram.perBankRdBursts::12           36                       # Per bank write bursts
system.mem_ctrls.dram.perBankRdBursts::13           23                       # Per bank write bursts
system.mem_ctrls.dram.perBankRdBursts::14            8                       # Per bank write bursts
system.mem_ctrls.dram.perBankRdBursts::15            7                       # Per bank write bursts
system.mem_ctrls.dram.perBankWrBursts::0            5                       # Per bank write bursts
system.mem_ctrls.dram.perBankWrBursts::1            0                       # Per bank write bursts
system.mem_ctrls.dram.perBankWrBursts::2            0                       # Per bank write bursts
system.mem_ctrls.dram.perBankWrBursts::3            0                       # Per bank write bursts
system.mem_ctrls.dram.perBankWrBursts::4            0                       # Per bank write bursts
system.mem_ctrls.dram.perBankWrBursts::5            0                       # Per bank write bursts
system.mem_ctrls.dram.perBankWrBursts::6            0                       # Per bank write bursts
system.mem_ctrls.dram.perBankWrBursts::7            0                       # Per bank write bursts
system.mem_ctrls.dram.perBankWrBursts::8            6                       # Per bank write bursts
system.mem_ctrls.dram.perBankWrBursts::9            1                       # Per bank write bursts
system.mem_ctrls.dram.perBankWrBursts::10            0                       # Per bank write bursts
system.mem_ctrls.dram.perBankWrBursts::11            3                       # Per bank write bursts
system.mem_ctrls.dram.perBankWrBursts::12            1                       # Per bank write bursts
system.mem_ctrls.dram.perBankWrBursts::13            0                       # Per bank write bursts
system.mem_ctrls.dram.perBankWrBursts::14            0                       # Per bank write bursts
system.mem_ctrls.dram.perBankWrBursts::15            0                       # Per bank write bursts
system.mem_ctrls.dram.totQLat                 3202500                       # Total ticks spent queuing
system.mem_ctrls.dram.totBusLat               2435000                       # Total ticks spent in databus transfers
system.mem_ctrls.dram.totMemAccLat           12333750                       # Total ticks spent from burst creation until serviced by the DRAM
system.mem_ctrls.dram.avgQLat                 6575.98                       # Average queueing delay per DRAM burst
system.mem_ctrls.dram.avgBusLat               5000.00                       # Average bus latency per DRAM burst
system.mem_ctrls.dram.avgMemAccLat           25325.98                       # Average memory access latency per DRAM burst
system.mem_ctrls.dram.readRowHits                 375                       # Number of row buffer hits during reads
system.mem_ctrls.dram.writeRowHits                 11                       # Number of row buffer hits during writes
system.mem_ctrls.dram.readRowHitRate            77.00                       # Row buffer hit rate for reads
system.mem_ctrls.dram.writeRowHitRate           68.75                       # Row buffer hit rate for writes
system.mem_ctrls.dram.bytesPerActivate::samples          117                       # Bytes accessed per row activation
system.mem_ctrls.dram.bytesPerActivate::mean   275.145299                       # Bytes accessed per row activation
system.mem_ctrls.dram.bytesPerActivate::gmean   179.200453                       # Bytes accessed per row activation
system.mem_ctrls.dram.bytesPerActivate::stdev   271.823385                       # Bytes accessed per row activation
system.mem_ctrls.dram.bytesPerActivate::0-127           38     32.48%     32.48% # Bytes accessed per row activation
system.mem_ctrls.dram.bytesPerActivate::128-255           36     30.77%     63.25% # Bytes accessed per row activation
system.mem_ctrls.dram.bytesPerActivate::256-383           10      8.55%     71.79% # Bytes accessed per row activation
system.mem_ctrls.dram.bytesPerActivate::384-511           12     10.26%     82.05% # Bytes accessed per row activation
system.mem_ctrls.dram.bytesPerActivate::512-639            5      4.27%     86.32% # Bytes accessed per row activation
system.mem_ctrls.dram.bytesPerActivate::640-767            5      4.27%     90.60% # Bytes accessed per row activation
system.mem_ctrls.dram.bytesPerActivate::768-895            4      3.42%     94.02% # Bytes accessed per row activation
system.mem_ctrls.dram.bytesPerActivate::896-1023            1      0.85%     94.87% # Bytes accessed per row activation
system.mem_ctrls.dram.bytesPerActivate::1024-1151            6      5.13%    100.00% # Bytes accessed per row activation
system.mem_ctrls.dram.bytesPerActivate::total          117                       # Bytes accessed per row activation
system.mem_ctrls.dram.bytesRead                 31168                       # Total number of bytes read from DRAM
system.mem_ctrls.dram.bytesWritten               1024                       # Total number of bytes written to DRAM
system.mem_ctrls.dram.avgRdBW              570.915685                       # Average DRAM read bandwidth in MiBytes/s
system.mem_ctrls.dram.avgWrBW               18.756983                       # Average DRAM write bandwidth in MiBytes/s
system.mem_ctrls.dram.peakBW                 12800.00                       # Theoretical peak bandwidth in MiByte/s
system.mem_ctrls.dram.busUtil                    4.61                       # Data bus utilization in percentage
system.mem_ctrls.dram.busUtilRead                4.46                       # Data bus utilization in percentage for reads
system.mem_ctrls.dram.busUtilWrite               0.15                       # Data bus utilization in percentage for writes
system.mem_ctrls.dram.pageHitRate               76.74                       # Row buffer hit rate, read and write combined
system.mem_ctrls.dram.power_state.pwrStateResidencyTicks::UNDEFINED     54593000                       # Cumulative time (in ticks) in various power states
system.mem_ctrls.dram.rank0.actEnergy          249900                       # Energy for activate commands per rank (pJ)
system.mem_ctrls.dram.rank0.preEnergy          132825                       # Energy for precharge commands per rank (pJ)
system.mem_ctrls.dram.rank0.readEnergy        1449420                       # Energy for read commands per rank (pJ)
system.mem_ctrls.dram.rank0.writeEnergy         26100                       # Energy for write commands per rank (pJ)
system.mem_ctrls.dram.rank0.refreshEnergy 4302480.000000                       # Energy for refresh commands per rank (pJ)
system.mem_ctrls.dram.rank0.actBackEnergy     18849330                       # Energy for active background per rank (pJ)
system.mem_ctrls.dram.rank0.preBackEnergy      5156160                       # Energy for precharge background per rank (pJ)
system.mem_ctrls.dram.rank0.actPowerDownEnergy            0                       # Energy for active power-down per rank (pJ)
system.mem_ctrls.dram.rank0.prePowerDownEnergy            0                       # Energy for precharge power-down per rank (pJ)
system.mem_ctrls.dram.rank0.selfRefreshEnergy            0                       # Energy for self refresh per rank (pJ)
system.mem_ctrls.dram.rank0.totalEnergy      30166215                       # Total energy per rank (pJ)
system.mem_ctrls.dram.rank0.averagePower   552.565622                       # Core power per rank (mW)
system.mem_ctrls.dram.rank0.totalIdleTime            0                       # Total Idle time Per DRAM Rank
system.mem_ctrls.dram.rank0.pwrStateTime::IDLE     13246750                       # Time in different power states
system.mem_ctrls.dram.rank0.pwrStateTime::REF      1635500                       # Time in different power states
system.mem_ctrls.dram.rank0.pwrStateTime::SREF            0                       # Time in different power states
system.mem_ctrls.dram.rank0.pwrStateTime::PRE_PDN            0                       # Time in different power states
system.mem_ctrls.dram.rank0.pwrStateTime::ACT     39710750                       # Time in different power states
system.mem_ctrls.dram.rank0.pwrStateTime::ACT_PDN            0                       # Time in different power states
system.mem_ctrls.dram.rank1.actEnergy          585480                       # Energy for activate commands per rank (pJ)
system.mem_ctrls.dram.rank1.preEnergy          311190                       # Energy for precharge commands per rank (pJ)
system.mem_ctrls.dram.rank1.readEnergy        2027760                       # Energy for read commands per rank (pJ)
system.mem_ctrls.dram.rank1.writeEnergy         57420                       # Energy for write commands per rank (pJ)
system.mem_ctrls.dram.rank1.refreshEnergy 4302480.000000                       # Energy for refresh commands per rank (pJ)
system.mem_ctrls.dram.rank1.actBackEnergy     23096400                       # Energy for active background per rank (pJ)
system.mem_ctrls.dram.rank1.preBackEnergy      1597920                       # Energy for precharge background per rank (pJ)
system.mem_ctrls.dram.rank1.actPowerDownEnergy            0                       # Energy for active power-down per rank (pJ)
system.mem_ctrls.dram.rank1.prePowerDownEnergy            0                       # Energy for precharge power-down per rank (pJ)
system.mem_ctrls.dram.rank1.selfRefreshEnergy            0                       # Energy for self refresh per rank (pJ)
system.mem_ctrls.dram.rank1.totalEnergy      31978650                       # Total energy per rank (pJ)
system.mem_ctrls.dram.rank1.averagePower   585.764658                       # Core power per rank (mW)
system.mem_ctrls.dram.rank1.totalIdleTime            0                       # Total Idle time Per DRAM Rank
system.mem_ctrls.dram.rank1.pwrStateTime::IDLE      3981000                       # Time in different power states
system.mem_ctrls.dram.rank1.pwrStateTime::REF      1589000                       # Time in different power states
system.mem_ctrls.dram.rank1.pwrStateTime::SREF            0                       # Time in different power states
system.mem_ctrls.dram.rank1.pwrStateTime::PRE_PDN            0                       # Time in different power states
system.mem_ctrls.dram.rank1.pwrStateTime::ACT     49023000                       # Time in different power states
system.mem_ctrls.dram.rank1.pwrStateTime::ACT_PDN            0                       # Time in different power states
system.mem_ctrls.power_state.pwrStateResidencyTicks::UNDEFINED     54593000                       # Cumulative time (in ticks) in various power states
system.membus.trans_dist::ReadResp                437                       # Transaction distribution
system.membus.trans_dist::WritebackClean           60                       # Transaction distribution
system.membus.trans_dist::ReadExReq                71                       # Transaction distribution
system.membus.trans_dist::ReadExResp               71                       # Transaction distribution
system.membus.trans_dist::ReadCleanReq            324                       # Transaction distribution
system.membus.trans_dist::ReadSharedReq           113                       # Transaction distribution
system.membus.pkt_count_system.cpu.icache.mem_side_port::system.mem_ctrls.port          708                       # Packet count per connected requestor and responder (bytes)
system.membus.pkt_count_system.cpu.dcache.mem_side_port::system.mem_ctrls.port          368                       # Packet count per connected requestor and responder (bytes)
system.membus.pkt_count::total                   1076                       # Packet count per connected requestor and responder (bytes)
system.membus.pkt_size_system.cpu.icache.mem_side_port::system.mem_ctrls.port        24576                       # Cumulative packet size per connected requestor and responder (bytes)
system.membus.pkt_size_system.cpu.dcache.mem_side_port::system.mem_ctrls.port        11776                       # Cumulative packet size per connected requestor and responder (bytes)
system.membus.pkt_size::total                   36352                       # Cumulative packet size per connected requestor and responder (bytes)
system.membus.snoops                                0                       # Total snoops (count)
system.membus.snoopTraffic                          0                       # Total snoop traffic (bytes)
system.membus.snoop_fanout::samples               508                       # Request fanout histogram
system.membus.snoop_fanout::mean             0.029528                       # Request fanout histogram
system.membus.snoop_fanout::stdev            0.169447                       # Request fanout histogram
system.membus.snoop_fanout::underflows              0      0.00%      0.00% # Request fanout histogram
system.membus.snoop_fanout::0                     493     97.05%     97.05% # Request fanout histogram
system.membus.snoop_fanout::1                      15      2.95%    100.00% # Request fanout histogram
system.membus.snoop_fanout::2                       0      0.00%    100.00% # Request fanout histogram
system.membus.snoop_fanout::overflows               0      0.00%    100.00% # Request fanout histogram
system.membus.snoop_fanout::min_value               0                       # Request fanout histogram
system.membus.snoop_fanout::max_value               1                       # Request fanout histogram
system.membus.snoop_fanout::total                 508                       # Request fanout histogram
system.membus.power_state.pwrStateResidencyTicks::UNDEFINED     54593000                       # Cumulative time (in ticks) in various power states
system.membus.reqLayer0.occupancy              816000                       # Layer occupancy (ticks)
system.membus.reqLayer0.utilization               1.5                       # Layer utilization (%)
system.membus.respLayer1.occupancy            1718250                       # Layer occupancy (ticks)
system.membus.respLayer1.utilization              3.1                       # Layer utilization (%)
system.membus.respLayer2.occupancy             983000                       # Layer occupancy (ticks)
system.membus.respLayer2.utilization              1.8                       # Layer utilization (%)
system.voltage_domain.voltage                       1                       # Voltage in Volts

---------- End Simulation Statistics   ----------
