
---------- Begin Simulation Statistics ----------
final_tick                                   54275000                       # Number of ticks from beginning of simulation (restored from checkpoints and never reset)
host_inst_rate                                 106306                       # Simulator instruction rate (inst/s)
host_mem_usage                                 645452                       # Number of bytes of host memory used
host_op_rate                                   125166                       # Simulator op (including micro ops) rate (op/s)
host_seconds                                     0.16                       # Real time elapsed on the host
host_tick_rate                              342139984                       # Simulator tick rate (ticks/s)
sim_freq                                 1000000000000                       # Frequency of simulated ticks
sim_insts                                       16823                       # Number of instructions simulated
sim_ops                                         19851                       # Number of ops (including micro ops) simulated
sim_seconds                                  0.000054                       # Number of seconds simulated
sim_ticks                                    54275000                       # Number of ticks simulated
system.cpu.committedInsts                       16823                       # Number of instructions committed
system.cpu.committedOps                         19851                       # Number of ops (including micro ops) committed
system.cpu.cpi                               6.452476                       # CPI: cycles per instruction
system.cpu.discardedOps                          2251                       # Number of ops (including micro ops) which were discarded before commit
system.cpu.idleCycles                           79144                       # Total number of cycles that the object has spent stopped
system.cpu.ipc                               0.154979                       # IPC: instructions per cycle
system.cpu.numCycles                           108550                       # number of cpu cycles simulated
system.cpu.numFetchSuspends                         0                       # Number of times Execute suspended instruction fetching
system.cpu.numWorkItemsCompleted                    0                       # number of work items this cpu completed
system.cpu.numWorkItemsStarted                      0                       # number of work items this cpu started
system.cpu.op_class_0::No_OpClass                   0      0.00%      0.00% # Class of committed instruction
system.cpu.op_class_0::IntAlu                   12779     64.37%     64.37% # Class of committed instruction
system.cpu.op_class_0::IntMult                     90      0.45%     64.83% # Class of committed instruction
system.cpu.op_class_0::IntDiv                       0      0.00%     64.83% # Class of committed instruction
system.cpu.op_class_0::FloatAdd                     0      0.00%     64.83% # Class of committed instruction
system.cpu.op_class_0::FloatCmp                     0      0.00%     64.83% # Class of committed instruction
system.cpu.op_class_0::FloatCvt                     0      0.00%     64.83% # Class of committed instruction
system.cpu.op_class_0::FloatMult                    0      0.00%     64.83% # Class of committed instruction
system.cpu.op_class_0::FloatMultAcc                 0      0.00%     64.83% # Class of committed instruction
system.cpu.op_class_0::FloatDiv                     0      0.00%     64.83% # Class of committed instruction
system.cpu.op_class_0::FloatMisc                    0      0.00%     64.83% # Class of committed instruction
system.cpu.op_class_0::FloatSqrt                    0      0.00%     64.83% # Class of committed instruction
system.cpu.op_class_0::SimdAdd                      0      0.00%     64.83% # Class of committed instruction
system.cpu.op_class_0::SimdAddAcc                   0      0.00%     64.83% # Class of committed instruction
system.cpu.op_class_0::SimdAlu                      0      0.00%     64.83% # Class of committed instruction
system.cpu.op_class_0::SimdCmp                      0      0.00%     64.83% # Class of committed instruction
system.cpu.op_class_0::SimdCvt                      0      0.00%     64.83% # Class of committed instruction
system.cpu.op_class_0::SimdMisc                     0      0.00%     64.83% # Class of committed instruction
system.cpu.op_class_0::SimdMult                     0      0.00%     64.83% # Class of committed instruction
system.cpu.op_class_0::SimdMultAcc                  0      0.00%     64.83% # Class of committed instruction
system.cpu.op_class_0::SimdShift                    0      0.00%     64.83% # Class of committed instruction
system.cpu.op_class_0::SimdShiftAcc                 0      0.00%     64.83% # Class of committed instruction
system.cpu.op_class_0::SimdDiv                      0      0.00%     64.83% # Class of committed instruction
system.cpu.op_class_0::SimdSqrt                     0      0.00%     64.83% # Class of committed instruction
system.cpu.op_class_0::SimdFloatAdd               178      0.90%     65.72% # Class of committed instruction
system.cpu.op_class_0::SimdFloatAlu                 0      0.00%     65.72% # Class of committed instruction
system.cpu.op_class_0::SimdFloatCmp                 0      0.00%     65.72% # Class of committed instruction
system.cpu.op_class_0::SimdFloatCvt                29      0.15%     65.87% # Class of committed instruction
system.cpu.op_class_0::SimdFloatDiv                 0      0.00%     65.87% # Class of committed instruction
system.cpu.op_class_0::SimdFloatMisc              205      1.03%     66.90% # Class of committed instruction
system.cpu.op_class_0::SimdFloatMult               89      0.45%     67.35% # Class of committed instruction
system.cpu.op_class_0::SimdFloatMultAcc           163      0.82%     68.17% # Class of committed instruction
system.cpu.op_class_0::SimdFloatSqrt                0      0.00%     68.17% # Class of committed instruction
system.cpu.op_class_0::SimdReduceAdd                0      0.00%     68.17% # Class of committed instruction
system.cpu.op_class_0::SimdReduceAlu                0      0.00%     68.17% # Class of committed instruction
system.cpu.op_class_0::SimdReduceCmp                0      0.00%     68.17% # Class of committed instruction
system.cpu.op_class_0::SimdFloatReduceAdd            0      0.00%     68.17% # Class of committed instruction
system.cpu.op_class_0::SimdFloatReduceCmp            0      0.00%     68.17% # Class of committed instruction
system.cpu.op_class_0::SimdAes                      0      0.00%     68.17% # Class of committed instruction
system.cpu.op_class_0::SimdAesMix                   0      0.00%     68.17% # Class of committed instruction
system.cpu.op_class_0::SimdSha1Hash                 0      0.00%     68.17% # Class of committed instruction
system.cpu.op_class_0::SimdSha1Hash2                0      0.00%     68.17% # Class of committed instruction
system.cpu.op_class_0::SimdSha256Hash               0      0.00%     68.17% # Class of committed instruction
system.cpu.op_class_0::SimdSha256Hash2              0      0.00%     68.17% # Class of committed instruction
system.cpu.op_class_0::SimdShaSigma2                0      0.00%     68.17% # Class of committed instruction
system.cpu.op_class_0::SimdShaSigma3                0      0.00%     68.17% # Class of committed instruction
system.cpu.op_class_0::SimdPredAlu                  0      0.00%     68.17% # Class of committed instruction
system.cpu.op_class_0::MemRead                   3243     16.34%     84.51% # Class of committed instruction
system.cpu.op_class_0::MemWrite                  3075     15.49%    100.00% # Class of committed instruction
system.cpu.op_class_0::FloatMemRead                 0      0.00%    100.00% # Class of committed instruction
system.cpu.op_class_0::FloatMemWrite                0      0.00%    100.00% # Class of committed instruction
system.cpu.op_class_0::IprAccess                    0      0.00%    100.00% # Class of committed instruction
system.cpu.op_class_0::InstPrefetch                 0      0.00%    100.00% # Class of committed instruction
system.cpu.op_class_0::total                    19851                       # Class of committed instruction
system.cpu.tickCycles                           29406                       # Number of cycles that the object actually ticked
system.cpu.workload.numSyscalls                    20                       # Number of system calls
system.membus.snoop_filter.hit_multi_requests            4                       # Number of requests hitting in the snoop filter with multiple (>1) holders of the requested data.
system.membus.snoop_filter.hit_multi_snoops            0                       # Number of snoops hitting in the snoop filter with multiple (>1) holders of the requested data.
system.membus.snoop_filter.hit_single_requests          171                       # Number of requests hitting in the snoop filter with a single holder of the requested data.
system.membus.snoop_filter.hit_single_snoops            0                       # Number of snoops hitting in the snoop filter with a single holder of the requested data.
system.membus.snoop_filter.tot_requests           822                       # Total number of requests made to the snoop filter.
system.membus.snoop_filter.tot_snoops               0                       # Total number of snoops made to the snoop filter.
system.clk_domain.clock                          1000                       # Clock period in ticks
system.cpu.branchPred.lookups                    4801                       # Number of BP lookups
system.cpu.branchPred.condPredicted              3118                       # Number of conditional branches predicted
system.cpu.branchPred.condIncorrect               699                       # Number of conditional branches incorrect
system.cpu.branchPred.BTBLookups                 2153                       # Number of BTB lookups
system.cpu.branchPred.BTBHits                    1186                       # Number of BTB hits
system.cpu.branchPred.BTBHitPct             55.085927                       # BTB Hit Percentage
system.cpu.branchPred.RASUsed                     468                       # Number of times the RAS was used to get a target.
system.cpu.branchPred.RASIncorrect                  1                       # Number of incorrect RAS predictions.
system.cpu.branchPred.indirectLookups             276                       # Number of indirect predictor lookups.
system.cpu.branchPred.indirectHits                 87                       # Number of indirect target hits.
system.cpu.branchPred.indirectMisses              189                       # Number of indirect misses.
system.cpu.branchPred.indirectMispredicted           80                       # Number of mispredicted indirect branches.
system.cpu.dcache.demand_hits::.cpu.data         6144                       # number of demand (read+write) hits
system.cpu.dcache.demand_hits::total             6144                       # number of demand (read+write) hits
system.cpu.dcache.overall_hits::.cpu.data         6163                       # number of overall hits
system.cpu.dcache.overall_hits::total            6163                       # number of overall hits
system.cpu.dcache.demand_misses::.cpu.data          243                       # number of demand (read+write) misses
system.cpu.dcache.demand_misses::total            243                       # number of demand (read+write) misses
system.cpu.dcache.overall_misses::.cpu.data          253                       # number of overall misses
system.cpu.dcache.overall_misses::total           253                       # number of overall misses
system.cpu.dcache.demand_miss_latency::.cpu.data     20152500                       # number of demand (read+write) miss cycles
system.cpu.dcache.demand_miss_latency::total     20152500                       # number of demand (read+write) miss cycles
system.cpu.dcache.overall_miss_latency::.cpu.data     20152500                       # number of overall miss cycles
system.cpu.dcache.overall_miss_latency::total     20152500                       # number of overall miss cycles
system.cpu.dcache.demand_accesses::.cpu.data         6387                       # number of demand (read+write) accesses
system.cpu.dcache.demand_accesses::total         6387                       # number of demand (read+write) accesses
system.cpu.dcache.overall_accesses::.cpu.data         6416                       # number of overall (read+write) accesses
system.cpu.dcache.overall_accesses::total         6416                       # number of overall (read+write) accesses
system.cpu.dcache.demand_miss_rate::.cpu.data     0.038046                       # miss rate for demand accesses
system.cpu.dcache.demand_miss_rate::total     0.038046                       # miss rate for demand accesses
system.cpu.dcache.overall_miss_rate::.cpu.data     0.039433                       # miss rate for overall accesses
system.cpu.dcache.overall_miss_rate::total     0.039433                       # miss rate for overall accesses
system.cpu.dcache.demand_avg_miss_latency::.cpu.data 82932.098765                       # average overall miss latency
system.cpu.dcache.demand_avg_miss_latency::total 82932.098765                       # average overall miss latency
system.cpu.dcache.overall_avg_miss_latency::.cpu.data 79654.150198                       # average overall miss latency
system.cpu.dcache.overall_avg_miss_latency::total 79654.150198                       # average overall miss latency
system.cpu.dcache.blocked_cycles::no_mshrs            0                       # number of cycles access was blocked
system.cpu.dcache.blocked_cycles::no_targets            0                       # number of cycles access was blocked
system.cpu.dcache.blocked::no_mshrs                 0                       # number of cycles access was blocked
system.cpu.dcache.blocked::no_targets               0                       # number of cycles access was blocked
system.cpu.dcache.avg_blocked_cycles::no_mshrs          nan                       # average number of cycles each access was blocked
system.cpu.dcache.avg_blocked_cycles::no_targets          nan                       # average number of cycles each access was blocked
system.cpu.dcache.demand_mshr_hits::.cpu.data           53                       # number of demand (read+write) MSHR hits
system.cpu.dcache.demand_mshr_hits::total           53                       # number of demand (read+write) MSHR hits
system.cpu.dcache.overall_mshr_hits::.cpu.data           53                       # number of overall MSHR hits
system.cpu.dcache.overall_mshr_hits::total           53                       # number of overall MSHR hits
system.cpu.dcache.demand_mshr_misses::.cpu.data          190                       # number of demand (read+write) MSHR misses
system.cpu.dcache.demand_mshr_misses::total          190                       # number of demand (read+write) MSHR misses
system.cpu.dcache.overall_mshr_misses::.cpu.data          196                       # number of overall MSHR misses
system.cpu.dcache.overall_mshr_misses::total          196                       # number of overall MSHR misses
system.cpu.dcache.demand_mshr_miss_latency::.cpu.data     15782500                       # number of demand (read+write) MSHR miss cycles
system.cpu.dcache.demand_mshr_miss_latency::total     15782500                       # number of demand (read+write) MSHR miss cycles
system.cpu.dcache.overall_mshr_miss_latency::.cpu.data     16322500                       # number of overall MSHR miss cycles
system.cpu.dcache.overall_mshr_miss_latency::total     16322500                       # number of overall MSHR miss cycles
system.cpu.dcache.demand_mshr_miss_rate::.cpu.data     0.029748                       # mshr miss rate for demand accesses
system.cpu.dcache.demand_mshr_miss_rate::total     0.029748                       # mshr miss rate for demand accesses
system.cpu.dcache.overall_mshr_miss_rate::.cpu.data     0.030549                       # mshr miss rate for overall accesses
system.cpu.dcache.overall_mshr_miss_rate::total     0.030549                       # mshr miss rate for overall accesses
system.cpu.dcache.demand_avg_mshr_miss_latency::.cpu.data 83065.789474                       # average overall mshr miss latency
system.cpu.dcache.demand_avg_mshr_miss_latency::total 83065.789474                       # average overall mshr miss latency
system.cpu.dcache.overall_avg_mshr_miss_latency::.cpu.data 83278.061224                       # average overall mshr miss latency
system.cpu.dcache.overall_avg_mshr_miss_latency::total 83278.061224                       # average overall mshr miss latency
system.cpu.dcache.replacements                      0                       # number of replacements
system.cpu.dcache.ReadReq_hits::.cpu.data         3303                       # number of ReadReq hits
system.cpu.dcache.ReadReq_hits::total            3303                       # number of ReadReq hits
system.cpu.dcache.ReadReq_misses::.cpu.data          127                       # number of ReadReq misses
system.cpu.dcache.ReadReq_misses::total           127                       # number of ReadReq misses
system.cpu.dcache.ReadReq_miss_latency::.cpu.data     10630000                       # number of ReadReq miss cycles
system.cpu.dcache.ReadReq_miss_latency::total     10630000                       # number of ReadReq miss cycles
system.cpu.dcache.ReadReq_accesses::.cpu.data         3430                       # number of ReadReq accesses(hits+misses)
system.cpu.dcache.ReadReq_accesses::total         3430                       # number of ReadReq accesses(hits+misses)
system.cpu.dcache.ReadReq_miss_rate::.cpu.data     0.037026                       # miss rate for ReadReq accesses
system.cpu.dcache.ReadReq_miss_rate::total     0.037026                       # miss rate for ReadReq accesses
system.cpu.dcache.ReadReq_avg_miss_latency::.cpu.data 83700.787402                       # average ReadReq miss latency
system.cpu.dcache.ReadReq_avg_miss_latency::total 83700.787402                       # average ReadReq miss latency
system.cpu.dcache.ReadReq_mshr_hits::.cpu.data            7                       # number of ReadReq MSHR hits
system.cpu.dcache.ReadReq_mshr_hits::total            7                       # number of ReadReq MSHR hits
system.cpu.dcache.ReadReq_mshr_misses::.cpu.data          120                       # number of ReadReq MSHR misses
system.cpu.dcache.ReadReq_mshr_misses::total          120                       # number of ReadReq MSHR misses
system.cpu.dcache.ReadReq_mshr_miss_latency::.cpu.data      9944500                       # number of ReadReq MSHR miss cycles
system.cpu.dcache.ReadReq_mshr_miss_latency::total      9944500                       # number of ReadReq MSHR miss cycles
system.cpu.dcache.ReadReq_mshr_miss_rate::.cpu.data     0.034985                       # mshr miss rate for ReadReq accesses
system.cpu.dcache.ReadReq_mshr_miss_rate::total     0.034985                       # mshr miss rate for ReadReq accesses
system.cpu.dcache.ReadReq_avg_mshr_miss_latency::.cpu.data 82870.833333                       # average ReadReq mshr miss latency
system.cpu.dcache.ReadReq_avg_mshr_miss_latency::total 82870.833333                       # average ReadReq mshr miss latency
system.cpu.dcache.WriteReq_hits::.cpu.data         2841                       # number of WriteReq hits
system.cpu.dcache.WriteReq_hits::total           2841                       # number of WriteReq hits
system.cpu.dcache.WriteReq_misses::.cpu.data          116                       # number of WriteReq misses
system.cpu.dcache.WriteReq_misses::total          116                       # number of WriteReq misses
system.cpu.dcache.WriteReq_miss_latency::.cpu.data      9522500                       # number of WriteReq miss cycles
system.cpu.dcache.WriteReq_miss_latency::total      9522500                       # number of WriteReq miss cycles
system.cpu.dcache.WriteReq_accesses::.cpu.data         2957                       # number of WriteReq accesses(hits+misses)
system.cpu.dcache.WriteReq_accesses::total         2957                       # number of WriteReq accesses(hits+misses)
system.cpu.dcache.WriteReq_miss_rate::.cpu.data     0.039229                       # miss rate for WriteReq accesses
system.cpu.dcache.WriteReq_miss_rate::total     0.039229                       # miss rate for WriteReq accesses
system.cpu.dcache.WriteReq_avg_miss_latency::.cpu.data 82090.517241                       # average WriteReq miss latency
system.cpu.dcache.WriteReq_avg_miss_latency::total 82090.517241                       # average WriteReq miss latency
system.cpu.dcache.WriteReq_mshr_hits::.cpu.data           46                       # number of WriteReq MSHR hits
system.cpu.dcache.WriteReq_mshr_hits::total           46                       # number of WriteReq MSHR hits
system.cpu.dcache.WriteReq_mshr_misses::.cpu.data           70                       # number of WriteReq MSHR misses
system.cpu.dcache.WriteReq_mshr_misses::total           70                       # number of WriteReq MSHR misses
system.cpu.dcache.WriteReq_mshr_miss_latency::.cpu.data      5838000                       # number of WriteReq MSHR miss cycles
system.cpu.dcache.WriteReq_mshr_miss_latency::total      5838000                       # number of WriteReq MSHR miss cycles
system.cpu.dcache.WriteReq_mshr_miss_rate::.cpu.data     0.023673                       # mshr miss rate for WriteReq accesses
system.cpu.dcache.WriteReq_mshr_miss_rate::total     0.023673                       # mshr miss rate for WriteReq accesses
system.cpu.dcache.WriteReq_avg_mshr_miss_latency::.cpu.data        83400                       # average WriteReq mshr miss latency
system.cpu.dcache.WriteReq_avg_mshr_miss_latency::total        83400                       # average WriteReq mshr miss latency
system.cpu.dcache.SoftPFReq_hits::.cpu.data           19                       # number of SoftPFReq hits
system.cpu.dcache.SoftPFReq_hits::total            19                       # number of SoftPFReq hits
system.cpu.dcache.SoftPFReq_misses::.cpu.data           10                       # number of SoftPFReq misses
system.cpu.dcache.SoftPFReq_misses::total           10                       # number of SoftPFReq misses
system.cpu.dcache.SoftPFReq_accesses::.cpu.data           29                       # number of SoftPFReq accesses(hits+misses)
system.cpu.dcache.SoftPFReq_accesses::total           29                       # number of SoftPFReq accesses(hits+misses)
system.cpu.dcache.SoftPFReq_miss_rate::.cpu.data     0.344828                       # miss rate for SoftPFReq accesses
system.cpu.dcache.SoftPFReq_miss_rate::total     0.344828                       # miss rate for SoftPFReq accesses
system.cpu.dcache.SoftPFReq_mshr_misses::.cpu.data            6                       # number of SoftPFReq MSHR misses
system.cpu.dcache.SoftPFReq_mshr_misses::total            6                       # number of SoftPFReq MSHR misses
system.cpu.dcache.SoftPFReq_mshr_miss_latency::.cpu.data       540000                       # number of SoftPFReq MSHR miss cycles
system.cpu.dcache.SoftPFReq_mshr_miss_latency::total       540000                       # number of SoftPFReq MSHR miss cycles
system.cpu.dcache.SoftPFReq_mshr_miss_rate::.cpu.data     0.206897                       # mshr miss rate for SoftPFReq accesses
system.cpu.dcache.SoftPFReq_mshr_miss_rate::total     0.206897                       # mshr miss rate for SoftPFReq accesses
system.cpu.dcache.SoftPFReq_avg_mshr_miss_latency::.cpu.data        90000                       # average SoftPFReq mshr miss latency
system.cpu.dcache.SoftPFReq_avg_mshr_miss_latency::total        90000                       # average SoftPFReq mshr miss latency
system.cpu.dcache.LoadLockedReq_hits::.cpu.data           36                       # number of LoadLockedReq hits
system.cpu.dcache.LoadLockedReq_hits::total           36                       # number of LoadLockedReq hits
system.cpu.dcache.LoadLockedReq_accesses::.cpu.data           36                       # number of LoadLockedReq accesses(hits+misses)
system.cpu.dcache.LoadLockedReq_accesses::total           36                       # number of LoadLockedReq accesses(hits+misses)
system.cpu.dcache.StoreCondReq_hits::.cpu.data           36                       # number of StoreCondReq hits
system.cpu.dcache.StoreCondReq_hits::total           36                       # number of StoreCondReq hits
system.cpu.dcache.StoreCondReq_accesses::.cpu.data           36                       # number of StoreCondReq accesses(hits+misses)
system.cpu.dcache.StoreCondReq_accesses::total           36                       # number of StoreCondReq accesses(hits+misses)
system.cpu.dcache.power_state.pwrStateResidencyTicks::UNDEFINED     54275000                       # Cumulative time (in ticks) in various power states
system.cpu.dcache.tags.tagsinuse           116.765861                       # Cycle average of tags in use
system.cpu.dcache.tags.total_refs                6431                       # Total number of references to valid blocks.
system.cpu.dcache.tags.sampled_refs               196                       # Sample count of references to valid blocks.
system.cpu.dcache.tags.avg_refs             32.811224                       # Average number of references to valid blocks.
system.cpu.dcache.tags.warmup_cycle            171000                       # Cycle when the warmup percentage was hit.
system.cpu.dcache.tags.occ_blocks::.cpu.data   116.765861                       # Average occupied blocks per requestor
system.cpu.dcache.tags.occ_percent::.cpu.data     0.114029                       # Average percentage of cache occupancy
system.cpu.dcache.tags.occ_percent::total     0.114029                       # Average percentage of cache occupancy
system.cpu.dcache.tags.occ_task_id_blocks::1024          196                       # Occupied blocks per task id
system.cpu.dcache.tags.age_task_id_blocks_1024::0           23                       # Occupied blocks per task id
system.cpu.dcache.tags.age_task_id_blocks_1024::1          173                       # Occupied blocks per task id
system.cpu.dcache.tags.occ_task_id_percent::1024     0.191406                       # Percentage of cache occupancy per task id
system.cpu.dcache.tags.tag_accesses             13172                       # Number of tag accesses
system.cpu.dcache.tags.data_accesses            13172                       # Number of data accesses
system.cpu.dcache.tags.power_state.pwrStateResidencyTicks::UNDEFINED     54275000                       # Cumulative time (in ticks) in various power states
system.cpu.dtb.instHits                             0                       # ITB inst hits
system.cpu.dtb.instMisses                           0                       # ITB inst misses
system.cpu.dtb.readHits                             0                       # DTB read hits
system.cpu.dtb.readMisses                           0                       # DTB read misses
system.cpu.dtb.writeHits                            0                       # DTB write hits
system.cpu.dtb.writeMisses                          0                       # DTB write misses
system.cpu.dtb.inserts                              0                       # Number of times an entry is inserted into the TLB
system.cpu.dtb.flushTlb                             0                       # Number of times complete TLB was flushed
system.cpu.dtb.flushTlbMva                          0                       # Number of times TLB was flushed by MVA
system.cpu.dtb.flushTlbMvaAsid                      0                       # Number of times TLB was flushed by MVA & ASID
system.cpu.dtb.flushTlbAsid                         0                       # Number of times TLB was flushed by ASID
system.cpu.dtb.flushedEntries                       0                       # Number of entries that have been flushed from TLB
system.cpu.dtb.alignFaults                          0                       # Number of TLB faults due to alignment restrictions
system.cpu.dtb.prefetchFaults                       0                       # Number of TLB faults due to prefetch
system.cpu.dtb.domainFaults                         0                       # Number of TLB faults due to domain restrictions
system.cpu.dtb.permsFaults                          0                       # Number of TLB faults due to permissions restrictions
system.cpu.dtb.readAccesses                         0                       # DTB read accesses
system.cpu.dtb.writeAccesses                        0                       # DTB write accesses
system.cpu.dtb.instAccesses                         0                       # ITB inst accesses
system.cpu.dtb.hits                                 0                       # Total TLB (inst and data) hits
system.cpu.dtb.misses                               0                       # Total TLB (inst and data) misses
system.cpu.dtb.accesses                             0                       # Total TLB (inst and data) accesses
system.cpu.dtb.stage2_mmu.stage2_tlb.instHits            0                       # ITB inst hits
system.cpu.dtb.stage2_mmu.stage2_tlb.instMisses            0                       # ITB inst misses
system.cpu.dtb.stage2_mmu.stage2_tlb.readHits            0                       # DTB read hits
system.cpu.dtb.stage2_mmu.stage2_tlb.readMisses            0                       # DTB read misses
system.cpu.dtb.stage2_mmu.stage2_tlb.writeHits            0                       # DTB write hits
system.cpu.dtb.stage2_mmu.stage2_tlb.writeMisses            0                       # DTB write misses
system.cpu.dtb.stage2_mmu.stage2_tlb.inserts            0                       # Number of times an entry is inserted into the TLB
system.cpu.dtb.stage2_mmu.stage2_tlb.flushTlb            0                       # Number of times complete TLB was flushed
system.cpu.dtb.stage2_mmu.stage2_tlb.flushTlbMva            0                       # Number of times TLB was flushed by MVA
system.cpu.dtb.stage2_mmu.stage2_tlb.flushTlbMvaAsid            0                       # Number of times TLB was flushed by MVA & ASID
system.cpu.dtb.stage2_mmu.stage2_tlb.flushTlbAsid            0                       # Number of times TLB was flushed by ASID
system.cpu.dtb.stage2_mmu.stage2_tlb.flushedEntries            0                       # Number of entries that have been flushed from TLB
system.cpu.dtb.stage2_mmu.stage2_tlb.alignFaults            0                       # Number of TLB faults due to alignment restrictions
system.cpu.dtb.stage2_mmu.stage2_tlb.prefetchFaults            0                       # Number of TLB faults due to prefetch
system.cpu.dtb.stage2_mmu.stage2_tlb.domainFaults            0                       # Number of TLB faults due to domain restrictions
system.cpu.dtb.stage2_mmu.stage2_tlb.permsFaults            0                       # Number of TLB faults due to permissions restrictions
system.cpu.dtb.stage2_mmu.stage2_tlb.readAccesses            0                       # DTB read accesses
system.cpu.dtb.stage2_mmu.stage2_tlb.writeAccesses            0                       # DTB write accesses
system.cpu.dtb.stage2_mmu.stage2_tlb.instAccesses            0                       # ITB inst accesses
system.cpu.dtb.stage2_mmu.stage2_tlb.hits            0                       # Total TLB (inst and data) hits
system.cpu.dtb.stage2_mmu.stage2_tlb.misses            0                       # Total TLB (inst and data) misses
system.cpu.dtb.stage2_mmu.stage2_tlb.accesses            0                       # Total TLB (inst and data) accesses
system.cpu.dtb.stage2_mmu.stage2_tlb.walker.walks            0                       # Table walker walks requested
system.cpu.dtb.stage2_mmu.stage2_tlb.walker.requestOrigin_Requested::Data            0                       # Table walker requests started/completed, data/inst
system.cpu.dtb.stage2_mmu.stage2_tlb.walker.requestOrigin_Requested::Inst            0                       # Table walker requests started/completed, data/inst
system.cpu.dtb.stage2_mmu.stage2_tlb.walker.requestOrigin_Requested::total            0                       # Table walker requests started/completed, data/inst
system.cpu.dtb.stage2_mmu.stage2_tlb.walker.requestOrigin_Completed::Data            0                       # Table walker requests started/completed, data/inst
system.cpu.dtb.stage2_mmu.stage2_tlb.walker.requestOrigin_Completed::Inst            0                       # Table walker requests started/completed, data/inst
system.cpu.dtb.stage2_mmu.stage2_tlb.walker.requestOrigin_Completed::total            0                       # Table walker requests started/completed, data/inst
system.cpu.dtb.stage2_mmu.stage2_tlb.walker.requestOrigin::total            0                       # Table walker requests started/completed, data/inst
system.cpu.dtb.stage2_mmu.stage2_tlb.walker.power_state.pwrStateResidencyTicks::UNDEFINED     54275000                       # Cumulative time (in ticks) in various power states
system.cpu.dtb.walker.walks                         0                       # Table walker walks requested
system.cpu.dtb.walker.requestOrigin_Requested::Data            0                       # Table walker requests started/completed, data/inst
system.cpu.dtb.walker.requestOrigin_Requested::Inst            0                       # Table walker requests started/completed, data/inst
system.cpu.dtb.walker.requestOrigin_Requested::total            0                       # Table walker requests started/completed, data/inst
system.cpu.dtb.walker.requestOrigin_Completed::Data            0                       # Table walker requests started/completed, data/inst
system.cpu.dtb.walker.requestOrigin_Completed::Inst            0                       # Table walker requests started/completed, data/inst
system.cpu.dtb.walker.requestOrigin_Completed::total            0                       # Table walker requests started/completed, data/inst
system.cpu.dtb.walker.requestOrigin::total            0                       # Table walker requests started/completed, data/inst
system.cpu.dtb.walker.power_state.pwrStateResidencyTicks::UNDEFINED     54275000                       # Cumulative time (in ticks) in various power states
system.cpu.fetch2.intInstructions               14409                       # Number of integer instructions successfully decoded
system.cpu.fetch2.fpInstructions                    0                       # Number of floating point instructions successfully decoded
system.cpu.fetch2.vecInstructions                   0                       # Number of SIMD instructions successfully decoded
system.cpu.fetch2.loadInstructions               3478                       # Number of memory load instructions successfully decoded
system.cpu.fetch2.storeInstructions              1967                       # Number of memory store instructions successfully decoded
system.cpu.fetch2.amoInstructions                   0                       # Number of memory atomic instructions successfully decoded
system.cpu.icache.demand_hits::.cpu.inst         5678                       # number of demand (read+write) hits
system.cpu.icache.demand_hits::total             5678                       # number of demand (read+write) hits
system.cpu.icache.overall_hits::.cpu.inst         5678                       # number of overall hits
system.cpu.icache.overall_hits::total            5678                       # number of overall hits
system.cpu.icache.demand_misses::.cpu.inst          478                       # number of demand (read+write) misses
system.cpu.icache.demand_misses::total            478                       # number of demand (read+write) misses
system.cpu.icache.overall_misses::.cpu.inst          478                       # number of overall misses
system.cpu.icache.overall_misses::total           478                       # number of overall misses
system.cpu.icache.demand_miss_latency::.cpu.inst     34938000                       # number of demand (read+write) miss cycles
system.cpu.icache.demand_miss_latency::total     34938000                       # number of demand (read+write) miss cycles
system.cpu.icache.overall_miss_latency::.cpu.inst     34938000                       # number of overall miss cycles
system.cpu.icache.overall_miss_latency::total     34938000                       # number of overall miss cycles
system.cpu.icache.demand_accesses::.cpu.inst         6156                       # number of demand (read+write) accesses
system.cpu.icache.demand_accesses::total         6156                       # number of demand (read+write) accesses
system.cpu.icache.overall_accesses::.cpu.inst         6156                       # number of overall (read+write) accesses
system.cpu.icache.overall_accesses::total         6156                       # number of overall (read+write) accesses
system.cpu.icache.demand_miss_rate::.cpu.inst     0.077648                       # miss rate for demand accesses
system.cpu.icache.demand_miss_rate::total     0.077648                       # miss rate for demand accesses
system.cpu.icache.overall_miss_rate::.cpu.inst     0.077648                       # miss rate for overall accesses
system.cpu.icache.overall_miss_rate::total     0.077648                       # miss rate for overall accesses
system.cpu.icache.demand_avg_miss_latency::.cpu.inst 73092.050209                       # average overall miss latency
system.cpu.icache.demand_avg_miss_latency::total 73092.050209                       # average overall miss latency
system.cpu.icache.overall_avg_miss_latency::.cpu.inst 73092.050209                       # average overall miss latency
system.cpu.icache.overall_avg_miss_latency::total 73092.050209                       # average overall miss latency
system.cpu.icache.blocked_cycles::no_mshrs            0                       # number of cycles access was blocked
system.cpu.icache.blocked_cycles::no_targets            0                       # number of cycles access was blocked
system.cpu.icache.blocked::no_mshrs                 0                       # number of cycles access was blocked
system.cpu.icache.blocked::no_targets               0                       # number of cycles access was blocked
system.cpu.icache.avg_blocked_cycles::no_mshrs          nan                       # average number of cycles each access was blocked
system.cpu.icache.avg_blocked_cycles::no_targets          nan                       # average number of cycles each access was blocked
system.cpu.icache.writebacks::.writebacks          148                       # number of writebacks
system.cpu.icache.writebacks::total               148                       # number of writebacks
system.cpu.icache.demand_mshr_misses::.cpu.inst          478                       # number of demand (read+write) MSHR misses
system.cpu.icache.demand_mshr_misses::total          478                       # number of demand (read+write) MSHR misses
system.cpu.icache.overall_mshr_misses::.cpu.inst          478                       # number of overall MSHR misses
system.cpu.icache.overall_mshr_misses::total          478                       # number of overall MSHR misses
system.cpu.icache.demand_mshr_miss_latency::.cpu.inst     34460000                       # number of demand (read+write) MSHR miss cycles
system.cpu.icache.demand_mshr_miss_latency::total     34460000                       # number of demand (read+write) MSHR miss cycles
system.cpu.icache.overall_mshr_miss_latency::.cpu.inst     34460000                       # number of overall MSHR miss cycles
system.cpu.icache.overall_mshr_miss_latency::total     34460000                       # number of overall MSHR miss cycles
system.cpu.icache.demand_mshr_miss_rate::.cpu.inst     0.077648                       # mshr miss rate for demand accesses
system.cpu.icache.demand_mshr_miss_rate::total     0.077648                       # mshr miss rate for demand accesses
system.cpu.icache.overall_mshr_miss_rate::.cpu.inst     0.077648                       # mshr miss rate for overall accesses
system.cpu.icache.overall_mshr_miss_rate::total     0.077648                       # mshr miss rate for overall accesses
system.cpu.icache.demand_avg_mshr_miss_latency::.cpu.inst 72092.050209                       # average overall mshr miss latency
system.cpu.icache.demand_avg_mshr_miss_latency::total 72092.050209                       # average overall mshr miss latency
system.cpu.icache.overall_avg_mshr_miss_latency::.cpu.inst 72092.050209                       # average overall mshr miss latency
system.cpu.icache.overall_avg_mshr_miss_latency::total 72092.050209                       # average overall mshr miss latency
system.cpu.icache.replacements                    148                       # number of replacements
system.cpu.icache.ReadReq_hits::.cpu.inst         5678                       # number of ReadReq hits
system.cpu.icache.ReadReq_hits::total            5678                       # number of ReadReq hits
system.cpu.icache.ReadReq_misses::.cpu.inst          478                       # number of ReadReq misses
system.cpu.icache.ReadReq_misses::total           478                       # number of ReadReq misses
system.cpu.icache.ReadReq_miss_latency::.cpu.inst     34938000                       # number of ReadReq miss cycles
system.cpu.icache.ReadReq_miss_latency::total     34938000                       # number of ReadReq miss cycles
system.cpu.icache.ReadReq_accesses::.cpu.inst         6156                       # number of ReadReq accesses(hits+misses)
system.cpu.icache.ReadReq_accesses::total         6156                       # number of ReadReq accesses(hits+misses)
system.cpu.icache.ReadReq_miss_rate::.cpu.inst     0.077648                       # miss rate for ReadReq accesses
system.cpu.icache.ReadReq_miss_rate::total     0.077648                       # miss rate for ReadReq accesses
system.cpu.icache.ReadReq_avg_miss_latency::.cpu.inst 73092.050209                       # average ReadReq miss latency
system.cpu.icache.ReadReq_avg_miss_latency::total 73092.050209                       # average ReadReq miss latency
system.cpu.icache.ReadReq_mshr_misses::.cpu.inst          478                       # number of ReadReq MSHR misses
system.cpu.icache.ReadReq_mshr_misses::total          478                       # number of ReadReq MSHR misses
system.cpu.icache.ReadReq_mshr_miss_latency::.cpu.inst     34460000                       # number of ReadReq MSHR miss cycles
system.cpu.icache.ReadReq_mshr_miss_latency::total     34460000                       # number of ReadReq MSHR miss cycles
system.cpu.icache.ReadReq_mshr_miss_rate::.cpu.inst     0.077648                       # mshr miss rate for ReadReq accesses
system.cpu.icache.ReadReq_mshr_miss_rate::total     0.077648                       # mshr miss rate for ReadReq accesses
system.cpu.icache.ReadReq_avg_mshr_miss_latency::.cpu.inst 72092.050209                       # average ReadReq mshr miss latency
system.cpu.icache.ReadReq_avg_mshr_miss_latency::total 72092.050209                       # average ReadReq mshr miss latency
system.cpu.icache.power_state.pwrStateResidencyTicks::UNDEFINED     54275000                       # Cumulative time (in ticks) in various power states
system.cpu.icache.tags.tagsinuse           205.184102                       # Cycle average of tags in use
system.cpu.icache.tags.total_refs                6156                       # Total number of references to valid blocks.
system.cpu.icache.tags.sampled_refs               478                       # Sample count of references to valid blocks.
system.cpu.icache.tags.avg_refs             12.878661                       # Average number of references to valid blocks.
system.cpu.icache.tags.warmup_cycle             91000                       # Cycle when the warmup percentage was hit.
system.cpu.icache.tags.occ_blocks::.cpu.inst   205.184102                       # Average occupied blocks per requestor
system.cpu.icache.tags.occ_percent::.cpu.inst     0.400750                       # Average percentage of cache occupancy
system.cpu.icache.tags.occ_percent::total     0.400750                       # Average percentage of cache occupancy
system.cpu.icache.tags.occ_task_id_blocks::1024          330                       # Occupied blocks per task id
system.cpu.icache.tags.age_task_id_blocks_1024::0           43                       # Occupied blocks per task id
system.cpu.icache.tags.age_task_id_blocks_1024::1          287                       # Occupied blocks per task id
system.cpu.icache.tags.occ_task_id_percent::1024     0.644531                       # Percentage of cache occupancy per task id
system.cpu.icache.tags.tag_accesses             12790                       # Number of tag accesses
system.cpu.icache.tags.data_accesses            12790                       # Number of data accesses
system.cpu.icache.tags.power_state.pwrStateResidencyTicks::UNDEFINED     54275000                       # Cumulative time (in ticks) in various power states
system.cpu.itb.instHits                             0                       # ITB inst hits
system.cpu.itb.instMisses                           0                       # ITB inst misses
system.cpu.itb.readHits                             0                       # DTB read hits
system.cpu.itb.readMisses                           0                       # DTB read misses
system.cpu.itb.writeHits                            0                       # DTB write hits
system.cpu.itb.writeMisses                          0                       # DTB write misses
system.cpu.itb.inserts                              0                       # Number of times an entry is inserted into the TLB
system.cpu.itb.flushTlb                             0                       # Number of times complete TLB was flushed
system.cpu.itb.flushTlbMva                          0                       # Number of times TLB was flushed by MVA
system.cpu.itb.flushTlbMvaAsid                      0                       # Number of times TLB was flushed by MVA & ASID
system.cpu.itb.flushTlbAsid                         0                       # Number of times TLB was flushed by ASID
system.cpu.itb.flushedEntries                       0                       # Number of entries that have been flushed from TLB
system.cpu.itb.alignFaults                          0                       # Number of TLB faults due to alignment restrictions
system.cpu.itb.prefetchFaults                       0                       # Number of TLB faults due to prefetch
system.cpu.itb.domainFaults                         0                       # Number of TLB faults due to domain restrictions
system.cpu.itb.permsFaults                          0                       # Number of TLB faults due to permissions restrictions
system.cpu.itb.readAccesses                         0                       # DTB read accesses
system.cpu.itb.writeAccesses                        0                       # DTB write accesses
system.cpu.itb.instAccesses                         0                       # ITB inst accesses
system.cpu.itb.hits                                 0                       # Total TLB (inst and data) hits
system.cpu.itb.misses                               0                       # Total TLB (inst and data) misses
system.cpu.itb.accesses                             0                       # Total TLB (inst and data) accesses
system.cpu.itb.stage2_mmu.stage2_tlb.instHits            0                       # ITB inst hits
system.cpu.itb.stage2_mmu.stage2_tlb.instMisses            0                       # ITB inst misses
system.cpu.itb.stage2_mmu.stage2_tlb.readHits            0                       # DTB read hits
system.cpu.itb.stage2_mmu.stage2_tlb.readMisses            0                       # DTB read misses
system.cpu.itb.stage2_mmu.stage2_tlb.writeHits            0                       # DTB write hits
system.cpu.itb.stage2_mmu.stage2_tlb.writeMisses            0                       # DTB write misses
system.cpu.itb.stage2_mmu.stage2_tlb.inserts            0                       # Number of times an entry is inserted into the TLB
system.cpu.itb.stage2_mmu.stage2_tlb.flushTlb            0                       # Number of times complete TLB was flushed
system.cpu.itb.stage2_mmu.stage2_tlb.flushTlbMva            0                       # Number of times TLB was flushed by MVA
system.cpu.itb.stage2_mmu.stage2_tlb.flushTlbMvaAsid            0                       # Number of times TLB was flushed by MVA & ASID
system.cpu.itb.stage2_mmu.stage2_tlb.flushTlbAsid            0                       # Number of times TLB was flushed by ASID
system.cpu.itb.stage2_mmu.stage2_tlb.flushedEntries            0                       # Number of entries that have been flushed from TLB
system.cpu.itb.stage2_mmu.stage2_tlb.alignFaults            0                       # Number of TLB faults due to alignment restrictions
system.cpu.itb.stage2_mmu.stage2_tlb.prefetchFaults            0                       # Number of TLB faults due to prefetch
system.cpu.itb.stage2_mmu.stage2_tlb.domainFaults            0                       # Number of TLB faults due to domain restrictions
system.cpu.itb.stage2_mmu.stage2_tlb.permsFaults            0                       # Number of TLB faults due to permissions restrictions
system.cpu.itb.stage2_mmu.stage2_tlb.readAccesses            0                       # DTB read accesses
system.cpu.itb.stage2_mmu.stage2_tlb.writeAccesses            0                       # DTB write accesses
system.cpu.itb.stage2_mmu.stage2_tlb.instAccesses            0                       # ITB inst accesses
system.cpu.itb.stage2_mmu.stage2_tlb.hits            0                       # Total TLB (inst and data) hits
system.cpu.itb.stage2_mmu.stage2_tlb.misses            0                       # Total TLB (inst and data) misses
system.cpu.itb.stage2_mmu.stage2_tlb.accesses            0                       # Total TLB (inst and data) accesses
system.cpu.itb.stage2_mmu.stage2_tlb.walker.walks            0                       # Table walker walks requested
system.cpu.itb.stage2_mmu.stage2_tlb.walker.requestOrigin_Requested::Data            0                       # Table walker requests started/completed, data/inst
system.cpu.itb.stage2_mmu.stage2_tlb.walker.requestOrigin_Requested::Inst            0                       # Table walker requests started/completed, data/inst
system.cpu.itb.stage2_mmu.stage2_tlb.walker.requestOrigin_Requested::total            0                       # Table walker requests started/completed, data/inst
system.cpu.itb.stage2_mmu.stage2_tlb.walker.requestOrigin_Completed::Data            0                       # Table walker requests started/completed, data/inst
system.cpu.itb.stage2_mmu.stage2_tlb.walker.requestOrigin_Completed::Inst            0                       # Table walker requests started/completed, data/inst
system.cpu.itb.stage2_mmu.stage2_tlb.walker.requestOrigin_Completed::total            0                       # Table walker requests started/completed, data/inst
system.cpu.itb.stage2_mmu.stage2_tlb.walker.requestOrigin::total            0                       # Table walker requests started/completed, data/inst
system.cpu.itb.stage2_mmu.stage2_tlb.walker.power_state.pwrStateResidencyTicks::UNDEFINED     54275000                       # Cumulative time (in ticks) in various power states
system.cpu.itb.walker.walks                         0                       # Table walker walks requested
system.cpu.itb.walker.requestOrigin_Requested::Data            0                       # Table walker requests started/completed, data/inst
system.cpu.itb.walker.requestOrigin_Requested::Inst            0                       # Table walker requests started/completed, data/inst
system.cpu.itb.walker.requestOrigin_Requested::total            0                       # Table walker requests started/completed, data/inst
system.cpu.itb.walker.requestOrigin_Completed::Data            0                       # Table walker requests started/completed, data/inst
system.cpu.itb.walker.requestOrigin_Completed::Inst            0                       # Table walker requests started/completed, data/inst
system.cpu.itb.walker.requestOrigin_Completed::total            0                       # Table walker requests started/completed, data/inst
system.cpu.itb.walker.requestOrigin::total            0                       # Table walker requests started/completed, data/inst
system.cpu.itb.walker.power_state.pwrStateResidencyTicks::UNDEFINED     54275000                       # Cumulative time (in ticks) in various power states
system.cpu.power_state.pwrStateResidencyTicks::ON     54275000                       # Cumulative time (in ticks) in various power states
system.cpu.thread_0.numInsts                    16823                       # Number of Instructions committed
system.cpu.thread_0.numOps                      19851                       # Number of Ops committed
system.cpu.thread_0.numMemRefs                      0                       # Number of Memory References
system.cpu_clk_domain.clock                       500                       # Clock period in ticks
system.cpu_voltage_domain.voltage                   1                       # Voltage in Volts
system.mem_ctrls.avgPriority_.writebacks::samples       224.00                       # Average QoS priority value for accepted requests
system.mem_ctrls.avgPriority_.cpu.inst::samples       871.00                       # Average QoS priority value for accepted requests
system.mem_ctrls.avgPriority_.cpu.data::samples       392.00                       # Average QoS priority value for accepted requests
system.mem_ctrls.priorityMinLatency      0.000000022500                       # per QoS priority minimum request to response latency (s)
system.mem_ctrls.priorityMaxLatency      0.000036694000                       # per QoS priority maximum request to response latency (s)
system.mem_ctrls.numReadWriteTurnArounds           12                       # Number of turnarounds from READ to WRITE
system.mem_ctrls.numWriteReadTurnArounds           12                       # Number of turnarounds from WRITE to READ
system.mem_ctrls.numStayReadState                2016                       # Number of times bus staying in READ state
system.mem_ctrls.numStayWriteState                180                       # Number of times bus staying in WRITE state
system.mem_ctrls.readReqs                         674                       # Number of read requests accepted
system.mem_ctrls.writeReqs                        144                       # Number of write requests accepted
system.mem_ctrls.readBursts                      1348                       # Number of controller read bursts, including those serviced by the write queue
system.mem_ctrls.writeBursts                      288                       # Number of controller write bursts, including those merged in the write queue
system.mem_ctrls.servicedByWrQ                     85                       # Number of controller read bursts serviced by the write queue
system.mem_ctrls.mergedWrBursts                    64                       # Number of controller write bursts merged with an existing one
system.mem_ctrls.neitherReadNorWriteReqs            0                       # Number of requests that are neither read nor write
system.mem_ctrls.avgRdQLen                       2.35                       # Average read queue length when enqueuing
system.mem_ctrls.avgWrQLen                      16.49                       # Average write queue length when enqueuing
system.mem_ctrls.numRdRetry                         0                       # Number of times read queue was full causing retry
system.mem_ctrls.numWrRetry                         0                       # Number of times write queue was full causing retry
system.mem_ctrls.readPktSize::0                     0                       # Read request sizes (log2)
system.mem_ctrls.readPktSize::1                     0                       # Read request sizes (log2)
system.mem_ctrls.readPktSize::2                     0                       # Read request sizes (log2)
system.mem_ctrls.readPktSize::3                     0                       # Read request sizes (log2)
system.mem_ctrls.readPktSize::4                     0                       # Read request sizes (log2)
system.mem_ctrls.readPktSize::5                  1348                       # Read request sizes (log2)
system.mem_ctrls.readPktSize::6                     0                       # Read request sizes (log2)
system.mem_ctrls.writePktSize::0                    0                       # Write request sizes (log2)
system.mem_ctrls.writePktSize::1                    0                       # Write request sizes (log2)
system.mem_ctrls.writePktSize::2                    0                       # Write request sizes (log2)
system.mem_ctrls.writePktSize::3                    0                       # Write request sizes (log2)
system.mem_ctrls.writePktSize::4                    0                       # Write request sizes (log2)
system.mem_ctrls.writePktSize::5                  288                       # Write request sizes (log2)
system.mem_ctrls.writePktSize::6                    0                       # Write request sizes (log2)
system.mem_ctrls.rdQLenPdf::0                     511                       # What read queue length does an incoming req see
system.mem_ctrls.rdQLenPdf::1                     524                       # What read queue length does an incoming req see
system.mem_ctrls.rdQLenPdf::2                     113                       # What read queue length does an incoming req see
system.mem_ctrls.rdQLenPdf::3                     100                       # What read queue length does an incoming req see
system.mem_ctrls.rdQLenPdf::4                       8                       # What read queue length does an incoming req see
system.mem_ctrls.rdQLenPdf::5                       7                       # What read queue length does an incoming req see
system.mem_ctrls.rdQLenPdf::6                       0                       # What read queue length does an incoming req see
system.mem_ctrls.rdQLenPdf::7                       0                       # What read queue length does an incoming req see
system.mem_ctrls.rdQLenPdf::8                       0                       # What read queue length does an incoming req see
system.mem_ctrls.rdQLenPdf::9                       0                       # What read queue length does an incoming req see
system.mem_ctrls.rdQLenPdf::10                      0                       # What read queue length does an incoming req see
system.mem_ctrls.rdQLenPdf::11                      0                       # What read queue length does an incoming req see
system.mem_ctrls.rdQLenPdf::12                      0                       # What read queue length does an incoming req see
system.mem_ctrls.rdQLenPdf::13                      0                       # What read queue length does an incoming req see
system.mem_ctrls.rdQLenPdf::14                      0                       # What read queue length does an incoming req see
system.mem_ctrls.rdQLenPdf::15                      0                       # What read queue length does an incoming req see
system.mem_ctrls.rdQLenPdf::16                      0                       # What read queue length does an incoming req see
system.mem_ctrls.rdQLenPdf::17                      0                       # What read queue length does an incoming req see
system.mem_ctrls.rdQLenPdf::18                      0                       # What read queue length does an incoming req see
system.mem_ctrls.rdQLenPdf::19                      0                       # What read queue length does an incoming req see
system.mem_ctrls.rdQLenPdf::20                      0                       # What read queue length does an incoming req see
system.mem_ctrls.rdQLenPdf::21                      0                       # What read queue length does an incoming req see
system.mem_ctrls.rdQLenPdf::22                      0                       # What read queue length does an incoming req see
system.mem_ctrls.rdQLenPdf::23                      0                       # What read queue length does an incoming req see
system.mem_ctrls.rdQLenPdf::24                      0                       # What read queue length does an incoming req see
system.mem_ctrls.rdQLenPdf::25                      0                       # What read queue length does an incoming req see
system.mem_ctrls.rdQLenPdf::26                      0                       # What read queue length does an incoming req see
system.mem_ctrls.rdQLenPdf::27                      0                       # What read queue length does an incoming req see
system.mem_ctrls.rdQLenPdf::28                      0                       # What read queue length does an incoming req see
system.mem_ctrls.rdQLenPdf::29                      0                       # What read queue length does an incoming req see
system.mem_ctrls.rdQLenPdf::30                      0                       # What read queue length does an incoming req see
system.mem_ctrls.rdQLenPdf::31                      0                       # What read queue length does an incoming req see
system.mem_ctrls.wrQLenPdf::0                       1                       # What write queue length does an incoming req see
system.mem_ctrls.wrQLenPdf::1                       1                       # What write queue length does an incoming req see
system.mem_ctrls.wrQLenPdf::2                       1                       # What write queue length does an incoming req see
system.mem_ctrls.wrQLenPdf::3                       1                       # What write queue length does an incoming req see
system.mem_ctrls.wrQLenPdf::4                       1                       # What write queue length does an incoming req see
system.mem_ctrls.wrQLenPdf::5                       1                       # What write queue length does an incoming req see
system.mem_ctrls.wrQLenPdf::6                       1                       # What write queue length does an incoming req see
system.mem_ctrls.wrQLenPdf::7                       1                       # What write queue length does an incoming req see
system.mem_ctrls.wrQLenPdf::8                       1                       # What write queue length does an incoming req see
system.mem_ctrls.wrQLenPdf::9                       1                       # What write queue length does an incoming req see
system.mem_ctrls.wrQLenPdf::10                      1                       # What write queue length does an incoming req see
system.mem_ctrls.wrQLenPdf::11                      1                       # What write queue length does an incoming req see
system.mem_ctrls.wrQLenPdf::12                      1                       # What write queue length does an incoming req see
system.mem_ctrls.wrQLenPdf::13                      1                       # What write queue length does an incoming req see
system.mem_ctrls.wrQLenPdf::14                      1                       # What write queue length does an incoming req see
system.mem_ctrls.wrQLenPdf::15                      1                       # What write queue length does an incoming req see
system.mem_ctrls.wrQLenPdf::16                      1                       # What write queue length does an incoming req see
system.mem_ctrls.wrQLenPdf::17                      1                       # What write queue length does an incoming req see
system.mem_ctrls.wrQLenPdf::18                     13                       # What write queue length does an incoming req see
system.mem_ctrls.wrQLenPdf::19                     13                       # What write queue length does an incoming req see
system.mem_ctrls.wrQLenPdf::20                     13                       # What write queue length does an incoming req see
system.mem_ctrls.wrQLenPdf::21                     13                       # What write queue length does an incoming req see
system.mem_ctrls.wrQLenPdf::22                     13                       # What write queue length does an incoming req see
system.mem_ctrls.wrQLenPdf::23                     13                       # What write queue length does an incoming req see
system.mem_ctrls.wrQLenPdf::24                     13                       # What write queue length does an incoming req see
system.mem_ctrls.wrQLenPdf::25                     13                       # What write queue length does an incoming req see
system.mem_ctrls.wrQLenPdf::26                     13                       # What write queue length does an incoming req see
system.mem_ctrls.wrQLenPdf::27                     13                       # What write queue length does an incoming req see
system.mem_ctrls.wrQLenPdf::28                     13                       # What write queue length does an incoming req see
system.mem_ctrls.wrQLenPdf::29                     13                       # What write queue length does an incoming req see
system.mem_ctrls.wrQLenPdf::30                     13                       # What write queue length does an incoming req see
system.mem_ctrls.wrQLenPdf::31                     13                       # What write queue length does an incoming req see
system.mem_ctrls.wrQLenPdf::32                     12                       # What write queue length does an incoming req see
system.mem_ctrls.wrQLenPdf::33                     12                       # What write queue length does an incoming req see
system.mem_ctrls.wrQLenPdf::34                      0                       # What write queue length does an incoming req see
system.mem_ctrls.wrQLenPdf::35                      0                       # What write queue length does an incoming req see
system.mem_ctrls.wrQLenPdf::36                      0                       # What write queue length does an incoming req see
system.mem_ctrls.wrQLenPdf::37                      0                       # What write queue length does an incoming req see
system.mem_ctrls.wrQLenPdf::38                      0                       # What write queue length does an incoming req see
system.mem_ctrls.wrQLenPdf::39                      0                       # What write queue length does an incoming req see
system.mem_ctrls.wrQLenPdf::40                      0                       # What write queue length does an incoming req see
system.mem_ctrls.wrQLenPdf::41                      0                       # What write queue length does an incoming req see
system.mem_ctrls.wrQLenPdf::42                      0                       # What write queue length does an incoming req see
system.mem_ctrls.wrQLenPdf::43                      0                       # What write queue length does an incoming req see
system.mem_ctrls.wrQLenPdf::44                      0                       # What write queue length does an incoming req see
system.mem_ctrls.wrQLenPdf::45                      0                       # What write queue length does an incoming req see
system.mem_ctrls.wrQLenPdf::46                      0                       # What write queue length does an incoming req see
system.mem_ctrls.wrQLenPdf::47                      0                       # What write queue length does an incoming req see
system.mem_ctrls.wrQLenPdf::48                      0                       # What write queue length does an incoming req see
system.mem_ctrls.wrQLenPdf::49                      0                       # What write queue length does an incoming req see
system.mem_ctrls.wrQLenPdf::50                      0                       # What write queue length does an incoming req see
system.mem_ctrls.wrQLenPdf::51                      0                       # What write queue length does an incoming req see
system.mem_ctrls.wrQLenPdf::52                      0                       # What write queue length does an incoming req see
system.mem_ctrls.wrQLenPdf::53                      0                       # What write queue length does an incoming req see
system.mem_ctrls.wrQLenPdf::54                      0                       # What write queue length does an incoming req see
system.mem_ctrls.wrQLenPdf::55                      0                       # What write queue length does an incoming req see
system.mem_ctrls.wrQLenPdf::56                      0                       # What write queue length does an incoming req see
system.mem_ctrls.wrQLenPdf::57                      0                       # What write queue length does an incoming req see
system.mem_ctrls.wrQLenPdf::58                      0                       # What write queue length does an incoming req see
system.mem_ctrls.wrQLenPdf::59                      0                       # What write queue length does an incoming req see
system.mem_ctrls.wrQLenPdf::60                      0                       # What write queue length does an incoming req see
system.mem_ctrls.wrQLenPdf::61                      0                       # What write queue length does an incoming req see
system.mem_ctrls.wrQLenPdf::62                      0                       # What write queue length does an incoming req see
system.mem_ctrls.wrQLenPdf::63                      0                       # What write queue length does an incoming req see
system.mem_ctrls.rdPerTurnAround::samples           12                       # Reads before turning the bus around for writes
system.mem_ctrls.rdPerTurnAround::mean      98.083333                       # Reads before turning the bus around for writes
system.mem_ctrls.rdPerTurnAround::gmean     45.376141                       # Reads before turning the bus around for writes
system.mem_ctrls.rdPerTurnAround::stdev    201.771454                       # Reads before turning the bus around for writes
system.mem_ctrls.rdPerTurnAround::0-31              5     41.67%     41.67% # Reads before turning the bus around for writes
system.mem_ctrls.rdPerTurnAround::32-63             5     41.67%     83.33% # Reads before turning the bus around for writes
system.mem_ctrls.rdPerTurnAround::96-127            1      8.33%     91.67% # Reads before turning the bus around for writes
system.mem_ctrls.rdPerTurnAround::704-735            1      8.33%    100.00% # Reads before turning the bus around for writes
system.mem_ctrls.rdPerTurnAround::total            12                       # Reads before turning the bus around for writes
system.mem_ctrls.wrPerTurnAround::samples           12                       # Writes before turning the bus around for reads
system.mem_ctrls.wrPerTurnAround::mean             16                       # Writes before turning the bus around for reads
system.mem_ctrls.wrPerTurnAround::gmean     16.000000                       # Writes before turning the bus around for reads
system.mem_ctrls.wrPerTurnAround::16               12    100.00%    100.00% # Writes before turning the bus around for reads
system.mem_ctrls.wrPerTurnAround::total            12                       # Writes before turning the bus around for reads
system.mem_ctrls.bytesReadWrQ                    2720                       # Total number of bytes read from write queue
system.mem_ctrls.bytesReadSys                   43136                       # Total read bytes from the system interface side
system.mem_ctrls.bytesWrittenSys                 9216                       # Total written bytes from the system interface side
system.mem_ctrls.avgRdBWSys                    794.77                       # Average system read bandwidth in MiByte/s
system.mem_ctrls.avgWrBWSys                    169.80                       # Average system write bandwidth in MiByte/s
system.mem_ctrls.totGap                      54266500                       # Total gap between requests
system.mem_ctrls.avgGap                      66340.46                       # Average gap between requests
system.mem_ctrls.requestorReadBytes::.cpu.inst        27872                       # Per-requestor bytes read from memory
system.mem_ctrls.requestorReadBytes::.cpu.data        12544                       # Per-requestor bytes read from memory
system.mem_ctrls.requestorWriteBytes::.writebacks         6144                       # Per-requestor bytes write to memory
system.mem_ctrls.requestorReadRate::.cpu.inst 513532934.131736576557                       # Per-requestor bytes read from memory rate (Bytes/sec)
system.mem_ctrls.requestorReadRate::.cpu.data 231119299.861814826727                       # Per-requestor bytes read from memory rate (Bytes/sec)
system.mem_ctrls.requestorWriteRate::.writebacks 113201289.728235840797                       # Per-requestor bytes write to memory rate (Bytes/sec)
system.mem_ctrls.requestorReadAccesses::.cpu.inst          956                       # Per-requestor read serviced memory accesses
system.mem_ctrls.requestorReadAccesses::.cpu.data          392                       # Per-requestor read serviced memory accesses
system.mem_ctrls.requestorWriteAccesses::.writebacks          288                       # Per-requestor write serviced memory accesses
system.mem_ctrls.requestorReadTotalLat::.cpu.inst     36079000                       # Per-requestor read total memory access latency
system.mem_ctrls.requestorReadTotalLat::.cpu.data     18658500                       # Per-requestor read total memory access latency
system.mem_ctrls.requestorWriteTotalLat::.writebacks    712994000                       # Per-requestor write total memory access latency
system.mem_ctrls.requestorReadAvgLat::.cpu.inst     37739.54                       # Per-requestor read average memory access latency
system.mem_ctrls.requestorReadAvgLat::.cpu.data     47598.21                       # Per-requestor read average memory access latency
system.mem_ctrls.requestorWriteAvgLat::.writebacks   2475673.61                       # Per-requestor write average memory access latency
system.mem_ctrls.dram.bytes_read::.cpu.inst        30592                       # Number of bytes read from this memory
system.mem_ctrls.dram.bytes_read::.cpu.data        12544                       # Number of bytes read from this memory
system.mem_ctrls.dram.bytes_read::total         43136                       # Number of bytes read from this memory
system.mem_ctrls.dram.bytes_inst_read::.cpu.inst        30592                       # Number of instructions bytes read from this memory
system.mem_ctrls.dram.bytes_inst_read::total        30592                       # Number of instructions bytes read from this memory
system.mem_ctrls.dram.num_reads::.cpu.inst          478                       # Number of read requests responded to by this memory
system.mem_ctrls.dram.num_reads::.cpu.data          196                       # Number of read requests responded to by this memory
system.mem_ctrls.dram.num_reads::total            674                       # Number of read requests responded to by this memory
system.mem_ctrls.dram.bw_read::.cpu.inst    563648088                       # Total read bandwidth from this memory (bytes/s)
system.mem_ctrls.dram.bw_read::.cpu.data    231119300                       # Total read bandwidth from this memory (bytes/s)
system.mem_ctrls.dram.bw_read::total        794767388                       # Total read bandwidth from this memory (bytes/s)
system.mem_ctrls.dram.bw_inst_read::.cpu.inst    563648088                       # Instruction read bandwidth from this memory (bytes/s)
system.mem_ctrls.dram.bw_inst_read::total    563648088                       # Instruction read bandwidth from this memory (bytes/s)
system.mem_ctrls.dram.bw_total::.cpu.inst    563648088                       # Total bandwidth to/from this memory (bytes/s)
system.mem_ctrls.dram.bw_total::.cpu.data    231119300                       # Total bandwidth to/from this memory (bytes/s)
system.mem_ctrls.dram.bw_total::total       794767388                       # Total bandwidth to/from this memory (bytes/s)
system.mem_ctrls.dram.readBursts                 1263                       # Number of DRAM read bursts
system.mem_ctrls.dram.writeBursts                 192                       # Number of DRAM write bursts
system.mem_ctrls.dram.perBankRdBursts::0          200                       # Per bank write bursts
system.mem_ctrls.dram.perBankRdBursts::1          172                       # Per bank write bursts
system.mem_ctrls.dram.perBankRdBursts::2          130                       # Per bank write bursts
system.mem_ctrls.dram.perBankRdBursts::3          150                       # Per bank write bursts
system.mem_ctrls.dram.perBankRdBursts::4          162                       # Per bank write bursts
system.mem_ctrls.dram.perBankRdBursts::5          152                       # Per bank write bursts
system.mem_ctrls.dram.perBankRdBursts::6          110                       # Per bank write bursts
system.mem_ctrls.dram.perBankRdBursts::7          187                       # Per bank write bursts
system.mem_ctrls.dram.perBankWrBursts::0           48                       # Per bank write bursts
system.mem_ctrls.dram.perBankWrBursts::1           54                       # Per bank write bursts
system.mem_ctrls.dram.perBankWrBursts::2           16                       # Per bank write bursts
system.mem_ctrls.dram.perBankWrBursts::3           16                       # Per bank write bursts
system.mem_ctrls.dram.perBankWrBursts::4           14                       # Per bank write bursts
system.mem_ctrls.dram.perBankWrBursts::5            4                       # Per bank write bursts
system.mem_ctrls.dram.perBankWrBursts::6            0                       # Per bank write bursts
system.mem_ctrls.dram.perBankWrBursts::7           40                       # Per bank write bursts
system.mem_ctrls.dram.totQLat                26320000                       # Total ticks spent queuing
system.mem_ctrls.dram.totBusLat               9472500                       # Total ticks spent in databus transfers
system.mem_ctrls.dram.totMemAccLat           54737500                       # Total ticks spent from burst creation until serviced by the DRAM
system.mem_ctrls.dram.avgQLat                20839.27                       # Average queueing delay per DRAM burst
system.mem_ctrls.dram.avgBusLat               7500.00                       # Average bus latency per DRAM burst
system.mem_ctrls.dram.avgMemAccLat           43339.27                       # Average memory access latency per DRAM burst
system.mem_ctrls.dram.readRowHits                1003                       # Number of row buffer hits during reads
system.mem_ctrls.dram.writeRowHits                147                       # Number of row buffer hits during writes
system.mem_ctrls.dram.readRowHitRate            79.41                       # Row buffer hit rate for reads
system.mem_ctrls.dram.writeRowHitRate           76.56                       # Row buffer hit rate for writes
system.mem_ctrls.dram.bytesPerActivate::samples          297                       # Bytes accessed per row activation
system.mem_ctrls.dram.bytesPerActivate::mean   154.181818                       # Bytes accessed per row activation
system.mem_ctrls.dram.bytesPerActivate::gmean   123.897923                       # Bytes accessed per row activation
system.mem_ctrls.dram.bytesPerActivate::stdev   111.662531                       # Bytes accessed per row activation
system.mem_ctrls.dram.bytesPerActivate::0-63            2      0.67%      0.67% # Bytes accessed per row activation
system.mem_ctrls.dram.bytesPerActivate::64-127          116     39.06%     39.73% # Bytes accessed per row activation
system.mem_ctrls.dram.bytesPerActivate::128-191           77     25.93%     65.66% # Bytes accessed per row activation
system.mem_ctrls.dram.bytesPerActivate::192-255           43     14.48%     80.13% # Bytes accessed per row activation
system.mem_ctrls.dram.bytesPerActivate::256-319           24      8.08%     88.22% # Bytes accessed per row activation
system.mem_ctrls.dram.bytesPerActivate::320-383           15      5.05%     93.27% # Bytes accessed per row activation
system.mem_ctrls.dram.bytesPerActivate::384-447            6      2.02%     95.29% # Bytes accessed per row activation
system.mem_ctrls.dram.bytesPerActivate::448-511            4      1.35%     96.63% # Bytes accessed per row activation
system.mem_ctrls.dram.bytesPerActivate::512-575           10      3.37%    100.00% # Bytes accessed per row activation
system.mem_ctrls.dram.bytesPerActivate::total          297                       # Bytes accessed per row activation
system.mem_ctrls.dram.bytesRead                 40416                       # Total number of bytes read from DRAM
system.mem_ctrls.dram.bytesWritten               6144                       # Total number of bytes written to DRAM
system.mem_ctrls.dram.avgRdBW              744.652234                       # Average DRAM read bandwidth in MiBytes/s
system.mem_ctrls.dram.avgWrBW              113.201290                       # Average DRAM write bandwidth in MiBytes/s
system.mem_ctrls.dram.peakBW                  4266.00                       # Theoretical peak bandwidth in MiByte/s
system.mem_ctrls.dram.busUtil                   20.11                       # Data bus utilization in percentage
system.mem_ctrls.dram.busUtilRead               17.46                       # Data bus utilization in percentage for reads
system.mem_ctrls.dram.busUtilWrite               2.65                       # Data bus utilization in percentage for writes
system.mem_ctrls.dram.pageHitRate               79.04                       # Row buffer hit rate, read and write combined
system.mem_ctrls.dram.power_state.pwrStateResidencyTicks::UNDEFINED     54275000                       # Cumulative time (in ticks) in various power states
system.mem_ctrls.dram.rank0.actEnergy    927789.870000                       # Energy for activate commands per rank (pJ)
system.mem_ctrls.dram.rank0.preEnergy    318256.646400                       # Energy for precharge commands per rank (pJ)
system.mem_ctrls.dram.rank0.readEnergy   2169411.652800                       # Energy for read commands per rank (pJ)
system.mem_ctrls.dram.rank0.writeEnergy  296077.824000                       # Energy for write commands per rank (pJ)
system.mem_ctrls.dram.rank0.refreshEnergy 361064.340000                       # Energy for refresh commands per rank (pJ)
system.mem_ctrls.dram.rank0.actBackEnergy 2157775.200000                       # Energy for active background per rank (pJ)
system.mem_ctrls.dram.rank0.preBackEnergy 39522.067200                       # Energy for precharge background per rank (pJ)
system.mem_ctrls.dram.rank0.actPowerDownEnergy            0                       # Energy for active power-down per rank (pJ)
system.mem_ctrls.dram.rank0.prePowerDownEnergy            0                       # Energy for precharge power-down per rank (pJ)
system.mem_ctrls.dram.rank0.selfRefreshEnergy            0                       # Energy for self refresh per rank (pJ)
system.mem_ctrls.dram.rank0.totalEnergy  6269897.600400                       # Total energy per rank (pJ)
system.mem_ctrls.dram.rank0.averagePower   115.520914                       # Core power per rank (mW)
system.mem_ctrls.dram.rank0.totalIdleTime            0                       # Total Idle time Per DRAM Rank
system.mem_ctrls.dram.rank0.pwrStateTime::IDLE       624500                       # Time in different power states
system.mem_ctrls.dram.rank0.pwrStateTime::REF      1690000                       # Time in different power states
system.mem_ctrls.dram.rank0.pwrStateTime::SREF            0                       # Time in different power states
system.mem_ctrls.dram.rank0.pwrStateTime::PRE_PDN            0                       # Time in different power states
system.mem_ctrls.dram.rank0.pwrStateTime::ACT     51960500                       # Time in different power states
system.mem_ctrls.dram.rank0.pwrStateTime::ACT_PDN            0                       # Time in different power states
system.mem_ctrls.power_state.pwrStateResidencyTicks::UNDEFINED     54275000                       # Cumulative time (in ticks) in various power states
system.membus.trans_dist::ReadResp                604                       # Transaction distribution
system.membus.trans_dist::WritebackClean          148                       # Transaction distribution
system.membus.trans_dist::ReadExReq                70                       # Transaction distribution
system.membus.trans_dist::ReadExResp               70                       # Transaction distribution
system.membus.trans_dist::ReadCleanReq            478                       # Transaction distribution
system.membus.trans_dist::ReadSharedReq           126                       # Transaction distribution
system.membus.pkt_count_system.cpu.icache.mem_side_port::system.mem_ctrls.port         1104                       # Packet count per connected requestor and responder (bytes)
system.membus.pkt_count_system.cpu.dcache.mem_side_port::system.mem_ctrls.port          392                       # Packet count per connected requestor and responder (bytes)
system.membus.pkt_count::total                   1496                       # Packet count per connected requestor and responder (bytes)
system.membus.pkt_size_system.cpu.icache.mem_side_port::system.mem_ctrls.port        40064                       # Cumulative packet size per connected requestor and responder (bytes)
system.membus.pkt_size_system.cpu.dcache.mem_side_port::system.mem_ctrls.port        12544                       # Cumulative packet size per connected requestor and responder (bytes)
system.membus.pkt_size::total                   52608                       # Cumulative packet size per connected requestor and responder (bytes)
system.membus.snoops                                0                       # Total snoops (count)
system.membus.snoopTraffic                          0                       # Total snoop traffic (bytes)
system.membus.snoop_fanout::samples               674                       # Request fanout histogram
system.membus.snoop_fanout::mean             0.040059                       # Request fanout histogram
system.membus.snoop_fanout::stdev            0.196244                       # Request fanout histogram
system.membus.snoop_fanout::underflows              0      0.00%      0.00% # Request fanout histogram
system.membus.snoop_fanout::0                     647     95.99%     95.99% # Request fanout histogram
system.membus.snoop_fanout::1                      27      4.01%    100.00% # Request fanout histogram
system.membus.snoop_fanout::2                       0      0.00%    100.00% # Request fanout histogram
system.membus.snoop_fanout::overflows               0      0.00%    100.00% # Request fanout histogram
system.membus.snoop_fanout::min_value               0                       # Request fanout histogram
system.membus.snoop_fanout::max_value               1                       # Request fanout histogram
system.membus.snoop_fanout::total                 674                       # Request fanout histogram
system.membus.power_state.pwrStateResidencyTicks::UNDEFINED     54275000                       # Cumulative time (in ticks) in various power states
system.membus.reqLayer0.occupancy             1516000                       # Layer occupancy (ticks)
system.membus.reqLayer0.utilization               2.8                       # Layer utilization (%)
system.membus.respLayer1.occupancy            2399250                       # Layer occupancy (ticks)
system.membus.respLayer1.utilization              4.4                       # Layer utilization (%)
system.membus.respLayer2.occupancy             992000                       # Layer occupancy (ticks)
system.membus.respLayer2.utilization              1.8                       # Layer utilization (%)
system.voltage_domain.voltage                       1                       # Voltage in Volts

---------- End Simulation Statistics   ----------
