
---------- Begin Simulation Statistics ----------
final_tick                                   46695500                       # Number of ticks from beginning of simulation (restored from checkpoints and never reset)
host_inst_rate                                 123097                       # Simulator instruction rate (inst/s)
host_mem_usage                                 654796                       # Number of bytes of host memory used
host_op_rate                                   141987                       # Simulator op (including micro ops) rate (op/s)
host_seconds                                     0.07                       # Real time elapsed on the host
host_tick_rate                              647648200                       # Simulator tick rate (ticks/s)
sim_freq                                 1000000000000                       # Frequency of simulated ticks
sim_insts                                        8862                       # Number of instructions simulated
sim_ops                                         10235                       # Number of ops (including micro ops) simulated
sim_seconds                                  0.000047                       # Number of seconds simulated
sim_ticks                                    46695500                       # Number of ticks simulated
system.cpu.committedInsts                        8862                       # Number of instructions committed
system.cpu.committedOps                         10235                       # Number of ops (including micro ops) committed
system.cpu.cpi                              10.538366                       # CPI: cycles per instruction
system.cpu.discardedOps                          1867                       # Number of ops (including micro ops) which were discarded before commit
system.cpu.idleCycles                           75356                       # Total number of cycles that the object has spent stopped
system.cpu.ipc                               0.094891                       # IPC: instructions per cycle
system.cpu.numCycles                            93391                       # number of cpu cycles simulated
system.cpu.numFetchSuspends                         0                       # Number of times Execute suspended instruction fetching
system.cpu.numWorkItemsCompleted                    0                       # number of work items this cpu completed
system.cpu.numWorkItemsStarted                      0                       # number of work items this cpu started
system.cpu.op_class_0::No_OpClass                   0      0.00%      0.00% # Class of committed instruction
system.cpu.op_class_0::IntAlu                    7076     69.14%     69.14% # Class of committed instruction
system.cpu.op_class_0::IntMult                     45      0.44%     69.57% # Class of committed instruction
system.cpu.op_class_0::IntDiv                       0      0.00%     69.57% # Class of committed instruction
system.cpu.op_class_0::FloatAdd                     0      0.00%     69.57% # Class of committed instruction
system.cpu.op_class_0::FloatCmp                     0      0.00%     69.57% # Class of committed instruction
system.cpu.op_class_0::FloatCvt                     0      0.00%     69.57% # Class of committed instruction
system.cpu.op_class_0::FloatMult                    0      0.00%     69.57% # Class of committed instruction
system.cpu.op_class_0::FloatMultAcc                 0      0.00%     69.57% # Class of committed instruction
system.cpu.op_class_0::FloatDiv                     0      0.00%     69.57% # Class of committed instruction
system.cpu.op_class_0::FloatMisc                    0      0.00%     69.57% # Class of committed instruction
system.cpu.op_class_0::FloatSqrt                    0      0.00%     69.57% # Class of committed instruction
system.cpu.op_class_0::SimdAdd                      0      0.00%     69.57% # Class of committed instruction
system.cpu.op_class_0::SimdAddAcc                   0      0.00%     69.57% # Class of committed instruction
system.cpu.op_class_0::SimdAlu                      0      0.00%     69.57% # Class of committed instruction
system.cpu.op_class_0::SimdCmp                      0      0.00%     69.57% # Class of committed instruction
system.cpu.op_class_0::SimdCvt                      0      0.00%     69.57% # Class of committed instruction
system.cpu.op_class_0::SimdMisc                     0      0.00%     69.57% # Class of committed instruction
system.cpu.op_class_0::SimdMult                     0      0.00%     69.57% # Class of committed instruction
system.cpu.op_class_0::SimdMultAcc                  0      0.00%     69.57% # Class of committed instruction
system.cpu.op_class_0::SimdShift                    0      0.00%     69.57% # Class of committed instruction
system.cpu.op_class_0::SimdShiftAcc                 0      0.00%     69.57% # Class of committed instruction
system.cpu.op_class_0::SimdDiv                      0      0.00%     69.57% # Class of committed instruction
system.cpu.op_class_0::SimdSqrt                     0      0.00%     69.57% # Class of committed instruction
system.cpu.op_class_0::SimdFloatAdd                 0      0.00%     69.57% # Class of committed instruction
system.cpu.op_class_0::SimdFloatAlu                 0      0.00%     69.57% # Class of committed instruction
system.cpu.op_class_0::SimdFloatCmp                 0      0.00%     69.57% # Class of committed instruction
system.cpu.op_class_0::SimdFloatCvt                 0      0.00%     69.57% # Class of committed instruction
system.cpu.op_class_0::SimdFloatDiv                 0      0.00%     69.57% # Class of committed instruction
system.cpu.op_class_0::SimdFloatMisc               21      0.21%     69.78% # Class of committed instruction
system.cpu.op_class_0::SimdFloatMult                0      0.00%     69.78% # Class of committed instruction
system.cpu.op_class_0::SimdFloatMultAcc             0      0.00%     69.78% # Class of committed instruction
system.cpu.op_class_0::SimdFloatSqrt                0      0.00%     69.78% # Class of committed instruction
system.cpu.op_class_0::SimdReduceAdd                0      0.00%     69.78% # Class of committed instruction
system.cpu.op_class_0::SimdReduceAlu                0      0.00%     69.78% # Class of committed instruction
system.cpu.op_class_0::SimdReduceCmp                0      0.00%     69.78% # Class of committed instruction
system.cpu.op_class_0::SimdFloatReduceAdd            0      0.00%     69.78% # Class of committed instruction
system.cpu.op_class_0::SimdFloatReduceCmp            0      0.00%     69.78% # Class of committed instruction
system.cpu.op_class_0::SimdAes                      0      0.00%     69.78% # Class of committed instruction
system.cpu.op_class_0::SimdAesMix                   0      0.00%     69.78% # Class of committed instruction
system.cpu.op_class_0::SimdSha1Hash                 0      0.00%     69.78% # Class of committed instruction
system.cpu.op_class_0::SimdSha1Hash2                0      0.00%     69.78% # Class of committed instruction
system.cpu.op_class_0::SimdSha256Hash               0      0.00%     69.78% # Class of committed instruction
system.cpu.op_class_0::SimdSha256Hash2              0      0.00%     69.78% # Class of committed instruction
system.cpu.op_class_0::SimdShaSigma2                0      0.00%     69.78% # Class of committed instruction
system.cpu.op_class_0::SimdShaSigma3                0      0.00%     69.78% # Class of committed instruction
system.cpu.op_class_0::SimdPredAlu                  0      0.00%     69.78% # Class of committed instruction
system.cpu.op_class_0::MemRead                   1460     14.26%     84.04% # Class of committed instruction
system.cpu.op_class_0::MemWrite                  1633     15.96%    100.00% # Class of committed instruction
system.cpu.op_class_0::FloatMemRead                 0      0.00%    100.00% # Class of committed instruction
system.cpu.op_class_0::FloatMemWrite                0      0.00%    100.00% # Class of committed instruction
system.cpu.op_class_0::IprAccess                    0      0.00%    100.00% # Class of committed instruction
system.cpu.op_class_0::InstPrefetch                 0      0.00%    100.00% # Class of committed instruction
system.cpu.op_class_0::total                    10235                       # Class of committed instruction
system.cpu.tickCycles                           18035                       # Number of cycles that the object actually ticked
system.cpu.workload.numSyscalls                    12                       # Number of system calls
system.membus.snoop_filter.hit_multi_requests            0                       # Number of requests hitting in the snoop filter with multiple (>1) holders of the requested data.
system.membus.snoop_filter.hit_multi_snoops            0                       # Number of snoops hitting in the snoop filter with multiple (>1) holders of the requested data.
system.membus.snoop_filter.hit_single_requests            0                       # Number of requests hitting in the snoop filter with a single holder of the requested data.
system.membus.snoop_filter.hit_single_snoops            0                       # Number of snoops hitting in the snoop filter with a single holder of the requested data.
system.membus.snoop_filter.tot_requests           604                       # Total number of requests made to the snoop filter.
system.membus.snoop_filter.tot_snoops               0                       # Total number of snoops made to the snoop filter.
system.tol2bus.snoop_filter.hit_multi_requests           13                       # Number of requests hitting in the snoop filter with multiple (>1) holders of the requested data.
system.tol2bus.snoop_filter.hit_multi_snoops            0                       # Number of snoops hitting in the snoop filter with multiple (>1) holders of the requested data.
system.tol2bus.snoop_filter.hit_single_requests          201                       # Number of requests hitting in the snoop filter with a single holder of the requested data.
system.tol2bus.snoop_filter.hit_single_snoops            0                       # Number of snoops hitting in the snoop filter with a single holder of the requested data.
system.tol2bus.snoop_filter.tot_requests          865                       # Total number of requests made to the snoop filter.
system.tol2bus.snoop_filter.tot_snoops              0                       # Total number of snoops made to the snoop filter.
system.clk_domain.clock                          1000                       # Clock period in ticks
system.cpu.branchPred.lookups                    3068                       # Number of BP lookups
system.cpu.branchPred.condPredicted              1971                       # Number of conditional branches predicted
system.cpu.branchPred.condIncorrect               567                       # Number of conditional branches incorrect
system.cpu.branchPred.BTBLookups                 1528                       # Number of BTB lookups
system.cpu.branchPred.BTBHits                     599                       # Number of BTB hits
system.cpu.branchPred.BTBHitPct             39.201571                       # BTB Hit Percentage
system.cpu.branchPred.RASUsed                     260                       # Number of times the RAS was used to get a target.
system.cpu.branchPred.RASIncorrect                  1                       # Number of incorrect RAS predictions.
system.cpu.branchPred.indirectLookups             149                       # Number of indirect predictor lookups.
system.cpu.branchPred.indirectHits                 15                       # Number of indirect target hits.
system.cpu.branchPred.indirectMisses              134                       # Number of indirect misses.
system.cpu.branchPred.indirectMispredicted           64                       # Number of mispredicted indirect branches.
system.cpu.dcache.demand_hits::.cpu.data         2979                       # number of demand (read+write) hits
system.cpu.dcache.demand_hits::total             2979                       # number of demand (read+write) hits
system.cpu.dcache.overall_hits::.cpu.data         3002                       # number of overall hits
system.cpu.dcache.overall_hits::total            3002                       # number of overall hits
system.cpu.dcache.demand_misses::.cpu.data          251                       # number of demand (read+write) misses
system.cpu.dcache.demand_misses::total            251                       # number of demand (read+write) misses
system.cpu.dcache.overall_misses::.cpu.data          271                       # number of overall misses
system.cpu.dcache.overall_misses::total           271                       # number of overall misses
system.cpu.dcache.demand_miss_latency::.cpu.data     19800500                       # number of demand (read+write) miss cycles
system.cpu.dcache.demand_miss_latency::total     19800500                       # number of demand (read+write) miss cycles
system.cpu.dcache.overall_miss_latency::.cpu.data     19800500                       # number of overall miss cycles
system.cpu.dcache.overall_miss_latency::total     19800500                       # number of overall miss cycles
system.cpu.dcache.demand_accesses::.cpu.data         3230                       # number of demand (read+write) accesses
system.cpu.dcache.demand_accesses::total         3230                       # number of demand (read+write) accesses
system.cpu.dcache.overall_accesses::.cpu.data         3273                       # number of overall (read+write) accesses
system.cpu.dcache.overall_accesses::total         3273                       # number of overall (read+write) accesses
system.cpu.dcache.demand_miss_rate::.cpu.data     0.077709                       # miss rate for demand accesses
system.cpu.dcache.demand_miss_rate::total     0.077709                       # miss rate for demand accesses
system.cpu.dcache.overall_miss_rate::.cpu.data     0.082799                       # miss rate for overall accesses
system.cpu.dcache.overall_miss_rate::total     0.082799                       # miss rate for overall accesses
system.cpu.dcache.demand_avg_miss_latency::.cpu.data 78886.454183                       # average overall miss latency
system.cpu.dcache.demand_avg_miss_latency::total 78886.454183                       # average overall miss latency
system.cpu.dcache.overall_avg_miss_latency::.cpu.data 73064.575646                       # average overall miss latency
system.cpu.dcache.overall_avg_miss_latency::total 73064.575646                       # average overall miss latency
system.cpu.dcache.blocked_cycles::no_mshrs            0                       # number of cycles access was blocked
system.cpu.dcache.blocked_cycles::no_targets            0                       # number of cycles access was blocked
system.cpu.dcache.blocked::no_mshrs                 0                       # number of cycles access was blocked
system.cpu.dcache.blocked::no_targets               0                       # number of cycles access was blocked
system.cpu.dcache.avg_blocked_cycles::no_mshrs          nan                       # average number of cycles each access was blocked
system.cpu.dcache.avg_blocked_cycles::no_targets          nan                       # average number of cycles each access was blocked
system.cpu.dcache.writebacks::.writebacks            3                       # number of writebacks
system.cpu.dcache.writebacks::total                 3                       # number of writebacks
system.cpu.dcache.demand_mshr_hits::.cpu.data           59                       # number of demand (read+write) MSHR hits
system.cpu.dcache.demand_mshr_hits::total           59                       # number of demand (read+write) MSHR hits
system.cpu.dcache.overall_mshr_hits::.cpu.data           59                       # number of overall MSHR hits
system.cpu.dcache.overall_mshr_hits::total           59                       # number of overall MSHR hits
system.cpu.dcache.demand_mshr_misses::.cpu.data          192                       # number of demand (read+write) MSHR misses
system.cpu.dcache.demand_mshr_misses::total          192                       # number of demand (read+write) MSHR misses
system.cpu.dcache.overall_mshr_misses::.cpu.data          206                       # number of overall MSHR misses
system.cpu.dcache.overall_mshr_misses::total          206                       # number of overall MSHR misses
system.cpu.dcache.demand_mshr_miss_latency::.cpu.data     15179000                       # number of demand (read+write) MSHR miss cycles
system.cpu.dcache.demand_mshr_miss_latency::total     15179000                       # number of demand (read+write) MSHR miss cycles
system.cpu.dcache.overall_mshr_miss_latency::.cpu.data     16337000                       # number of overall MSHR miss cycles
system.cpu.dcache.overall_mshr_miss_latency::total     16337000                       # number of overall MSHR miss cycles
system.cpu.dcache.demand_mshr_miss_rate::.cpu.data     0.059443                       # mshr miss rate for demand accesses
system.cpu.dcache.demand_mshr_miss_rate::total     0.059443                       # mshr miss rate for demand accesses
system.cpu.dcache.overall_mshr_miss_rate::.cpu.data     0.062939                       # mshr miss rate for overall accesses
system.cpu.dcache.overall_mshr_miss_rate::total     0.062939                       # mshr miss rate for overall accesses
system.cpu.dcache.demand_avg_mshr_miss_latency::.cpu.data 79057.291667                       # average overall mshr miss latency
system.cpu.dcache.demand_avg_mshr_miss_latency::total 79057.291667                       # average overall mshr miss latency
system.cpu.dcache.overall_avg_mshr_miss_latency::.cpu.data 79305.825243                       # average overall mshr miss latency
system.cpu.dcache.overall_avg_mshr_miss_latency::total 79305.825243                       # average overall mshr miss latency
system.cpu.dcache.replacements                      8                       # number of replacements
system.cpu.dcache.ReadReq_hits::.cpu.data         1528                       # number of ReadReq hits
system.cpu.dcache.ReadReq_hits::total            1528                       # number of ReadReq hits
system.cpu.dcache.ReadReq_misses::.cpu.data          119                       # number of ReadReq misses
system.cpu.dcache.ReadReq_misses::total           119                       # number of ReadReq misses
system.cpu.dcache.ReadReq_miss_latency::.cpu.data      9358500                       # number of ReadReq miss cycles
system.cpu.dcache.ReadReq_miss_latency::total      9358500                       # number of ReadReq miss cycles
system.cpu.dcache.ReadReq_accesses::.cpu.data         1647                       # number of ReadReq accesses(hits+misses)
system.cpu.dcache.ReadReq_accesses::total         1647                       # number of ReadReq accesses(hits+misses)
system.cpu.dcache.ReadReq_miss_rate::.cpu.data     0.072253                       # miss rate for ReadReq accesses
system.cpu.dcache.ReadReq_miss_rate::total     0.072253                       # miss rate for ReadReq accesses
system.cpu.dcache.ReadReq_avg_miss_latency::.cpu.data 78642.857143                       # average ReadReq miss latency
system.cpu.dcache.ReadReq_avg_miss_latency::total 78642.857143                       # average ReadReq miss latency
system.cpu.dcache.ReadReq_mshr_hits::.cpu.data            6                       # number of ReadReq MSHR hits
system.cpu.dcache.ReadReq_mshr_hits::total            6                       # number of ReadReq MSHR hits
system.cpu.dcache.ReadReq_mshr_misses::.cpu.data          113                       # number of ReadReq MSHR misses
system.cpu.dcache.ReadReq_mshr_misses::total          113                       # number of ReadReq MSHR misses
system.cpu.dcache.ReadReq_mshr_miss_latency::.cpu.data      8802000                       # number of ReadReq MSHR miss cycles
system.cpu.dcache.ReadReq_mshr_miss_latency::total      8802000                       # number of ReadReq MSHR miss cycles
system.cpu.dcache.ReadReq_mshr_miss_rate::.cpu.data     0.068610                       # mshr miss rate for ReadReq accesses
system.cpu.dcache.ReadReq_mshr_miss_rate::total     0.068610                       # mshr miss rate for ReadReq accesses
system.cpu.dcache.ReadReq_avg_mshr_miss_latency::.cpu.data 77893.805310                       # average ReadReq mshr miss latency
system.cpu.dcache.ReadReq_avg_mshr_miss_latency::total 77893.805310                       # average ReadReq mshr miss latency
system.cpu.dcache.WriteReq_hits::.cpu.data         1451                       # number of WriteReq hits
system.cpu.dcache.WriteReq_hits::total           1451                       # number of WriteReq hits
system.cpu.dcache.WriteReq_misses::.cpu.data          132                       # number of WriteReq misses
system.cpu.dcache.WriteReq_misses::total          132                       # number of WriteReq misses
system.cpu.dcache.WriteReq_miss_latency::.cpu.data     10442000                       # number of WriteReq miss cycles
system.cpu.dcache.WriteReq_miss_latency::total     10442000                       # number of WriteReq miss cycles
system.cpu.dcache.WriteReq_accesses::.cpu.data         1583                       # number of WriteReq accesses(hits+misses)
system.cpu.dcache.WriteReq_accesses::total         1583                       # number of WriteReq accesses(hits+misses)
system.cpu.dcache.WriteReq_miss_rate::.cpu.data     0.083386                       # miss rate for WriteReq accesses
system.cpu.dcache.WriteReq_miss_rate::total     0.083386                       # miss rate for WriteReq accesses
system.cpu.dcache.WriteReq_avg_miss_latency::.cpu.data 79106.060606                       # average WriteReq miss latency
system.cpu.dcache.WriteReq_avg_miss_latency::total 79106.060606                       # average WriteReq miss latency
system.cpu.dcache.WriteReq_mshr_hits::.cpu.data           53                       # number of WriteReq MSHR hits
system.cpu.dcache.WriteReq_mshr_hits::total           53                       # number of WriteReq MSHR hits
system.cpu.dcache.WriteReq_mshr_misses::.cpu.data           79                       # number of WriteReq MSHR misses
system.cpu.dcache.WriteReq_mshr_misses::total           79                       # number of WriteReq MSHR misses
system.cpu.dcache.WriteReq_mshr_miss_latency::.cpu.data      6377000                       # number of WriteReq MSHR miss cycles
system.cpu.dcache.WriteReq_mshr_miss_latency::total      6377000                       # number of WriteReq MSHR miss cycles
system.cpu.dcache.WriteReq_mshr_miss_rate::.cpu.data     0.049905                       # mshr miss rate for WriteReq accesses
system.cpu.dcache.WriteReq_mshr_miss_rate::total     0.049905                       # mshr miss rate for WriteReq accesses
system.cpu.dcache.WriteReq_avg_mshr_miss_latency::.cpu.data 80721.518987                       # average WriteReq mshr miss latency
system.cpu.dcache.WriteReq_avg_mshr_miss_latency::total 80721.518987                       # average WriteReq mshr miss latency
system.cpu.dcache.SoftPFReq_hits::.cpu.data           23                       # number of SoftPFReq hits
system.cpu.dcache.SoftPFReq_hits::total            23                       # number of SoftPFReq hits
system.cpu.dcache.SoftPFReq_misses::.cpu.data           20                       # number of SoftPFReq misses
system.cpu.dcache.SoftPFReq_misses::total           20                       # number of SoftPFReq misses
system.cpu.dcache.SoftPFReq_accesses::.cpu.data           43                       # number of SoftPFReq accesses(hits+misses)
system.cpu.dcache.SoftPFReq_accesses::total           43                       # number of SoftPFReq accesses(hits+misses)
system.cpu.dcache.SoftPFReq_miss_rate::.cpu.data     0.465116                       # miss rate for SoftPFReq accesses
system.cpu.dcache.SoftPFReq_miss_rate::total     0.465116                       # miss rate for SoftPFReq accesses
system.cpu.dcache.SoftPFReq_mshr_misses::.cpu.data           14                       # number of SoftPFReq MSHR misses
system.cpu.dcache.SoftPFReq_mshr_misses::total           14                       # number of SoftPFReq MSHR misses
system.cpu.dcache.SoftPFReq_mshr_miss_latency::.cpu.data      1158000                       # number of SoftPFReq MSHR miss cycles
system.cpu.dcache.SoftPFReq_mshr_miss_latency::total      1158000                       # number of SoftPFReq MSHR miss cycles
system.cpu.dcache.SoftPFReq_mshr_miss_rate::.cpu.data     0.325581                       # mshr miss rate for SoftPFReq accesses
system.cpu.dcache.SoftPFReq_mshr_miss_rate::total     0.325581                       # mshr miss rate for SoftPFReq accesses
system.cpu.dcache.SoftPFReq_avg_mshr_miss_latency::.cpu.data 82714.285714                       # average SoftPFReq mshr miss latency
system.cpu.dcache.SoftPFReq_avg_mshr_miss_latency::total 82714.285714                       # average SoftPFReq mshr miss latency
system.cpu.dcache.LoadLockedReq_hits::.cpu.data           19                       # number of LoadLockedReq hits
system.cpu.dcache.LoadLockedReq_hits::total           19                       # number of LoadLockedReq hits
system.cpu.dcache.LoadLockedReq_misses::.cpu.data            1                       # number of LoadLockedReq misses
system.cpu.dcache.LoadLockedReq_misses::total            1                       # number of LoadLockedReq misses
system.cpu.dcache.LoadLockedReq_miss_latency::.cpu.data        74500                       # number of LoadLockedReq miss cycles
system.cpu.dcache.LoadLockedReq_miss_latency::total        74500                       # number of LoadLockedReq miss cycles
system.cpu.dcache.LoadLockedReq_accesses::.cpu.data           20                       # number of LoadLockedReq accesses(hits+misses)
system.cpu.dcache.LoadLockedReq_accesses::total           20                       # number of LoadLockedReq accesses(hits+misses)
system.cpu.dcache.LoadLockedReq_miss_rate::.cpu.data     0.050000                       # miss rate for LoadLockedReq accesses
system.cpu.dcache.LoadLockedReq_miss_rate::total     0.050000                       # miss rate for LoadLockedReq accesses
system.cpu.dcache.LoadLockedReq_avg_miss_latency::.cpu.data        74500                       # average LoadLockedReq miss latency
system.cpu.dcache.LoadLockedReq_avg_miss_latency::total        74500                       # average LoadLockedReq miss latency
system.cpu.dcache.LoadLockedReq_mshr_misses::.cpu.data            1                       # number of LoadLockedReq MSHR misses
system.cpu.dcache.LoadLockedReq_mshr_misses::total            1                       # number of LoadLockedReq MSHR misses
system.cpu.dcache.LoadLockedReq_mshr_miss_latency::.cpu.data        73500                       # number of LoadLockedReq MSHR miss cycles
system.cpu.dcache.LoadLockedReq_mshr_miss_latency::total        73500                       # number of LoadLockedReq MSHR miss cycles
system.cpu.dcache.LoadLockedReq_mshr_miss_rate::.cpu.data     0.050000                       # mshr miss rate for LoadLockedReq accesses
system.cpu.dcache.LoadLockedReq_mshr_miss_rate::total     0.050000                       # mshr miss rate for LoadLockedReq accesses
system.cpu.dcache.LoadLockedReq_avg_mshr_miss_latency::.cpu.data        73500                       # average LoadLockedReq mshr miss latency
system.cpu.dcache.LoadLockedReq_avg_mshr_miss_latency::total        73500                       # average LoadLockedReq mshr miss latency
system.cpu.dcache.StoreCondReq_hits::.cpu.data           20                       # number of StoreCondReq hits
system.cpu.dcache.StoreCondReq_hits::total           20                       # number of StoreCondReq hits
system.cpu.dcache.StoreCondReq_accesses::.cpu.data           20                       # number of StoreCondReq accesses(hits+misses)
system.cpu.dcache.StoreCondReq_accesses::total           20                       # number of StoreCondReq accesses(hits+misses)
system.cpu.dcache.power_state.pwrStateResidencyTicks::UNDEFINED     46695500                       # Cumulative time (in ticks) in various power states
system.cpu.dcache.tags.tagsinuse           107.810958                       # Cycle average of tags in use
system.cpu.dcache.tags.total_refs                3248                       # Total number of references to valid blocks.
system.cpu.dcache.tags.sampled_refs               207                       # Sample count of references to valid blocks.
system.cpu.dcache.tags.avg_refs             15.690821                       # Average number of references to valid blocks.
system.cpu.dcache.tags.warmup_cycle            176500                       # Cycle when the warmup percentage was hit.
system.cpu.dcache.tags.occ_blocks::.cpu.data   107.810958                       # Average occupied blocks per requestor
system.cpu.dcache.tags.occ_percent::.cpu.data     0.105284                       # Average percentage of cache occupancy
system.cpu.dcache.tags.occ_percent::total     0.105284                       # Average percentage of cache occupancy
system.cpu.dcache.tags.occ_task_id_blocks::1024          199                       # Occupied blocks per task id
system.cpu.dcache.tags.age_task_id_blocks_1024::0           45                       # Occupied blocks per task id
system.cpu.dcache.tags.age_task_id_blocks_1024::1          154                       # Occupied blocks per task id
system.cpu.dcache.tags.occ_task_id_percent::1024     0.194336                       # Percentage of cache occupancy per task id
system.cpu.dcache.tags.tag_accesses              6833                       # Number of tag accesses
system.cpu.dcache.tags.data_accesses             6833                       # Number of data accesses
system.cpu.dcache.tags.power_state.pwrStateResidencyTicks::UNDEFINED     46695500                       # Cumulative time (in ticks) in various power states
system.cpu.dtb.instHits                             0                       # ITB inst hits
system.cpu.dtb.instMisses                           0                       # ITB inst misses
system.cpu.dtb.readHits                             0                       # DTB read hits
system.cpu.dtb.readMisses                           0                       # DTB read misses
system.cpu.dtb.writeHits                            0                       # DTB write hits
system.cpu.dtb.writeMisses                          0                       # DTB write misses
system.cpu.dtb.inserts                              0                       # Number of times an entry is inserted into the TLB
system.cpu.dtb.flushTlb                             0                       # Number of times complete TLB was flushed
system.cpu.dtb.flushTlbMva                          0                       # Number of times TLB was flushed by MVA
system.cpu.dtb.flushTlbMvaAsid                      0                       # Number of times TLB was flushed by MVA & ASID
system.cpu.dtb.flushTlbAsid                         0                       # Number of times TLB was flushed by ASID
system.cpu.dtb.flushedEntries                       0                       # Number of entries that have been flushed from TLB
system.cpu.dtb.alignFaults                          0                       # Number of TLB faults due to alignment restrictions
system.cpu.dtb.prefetchFaults                       0                       # Number of TLB faults due to prefetch
system.cpu.dtb.domainFaults                         0                       # Number of TLB faults due to domain restrictions
system.cpu.dtb.permsFaults                          0                       # Number of TLB faults due to permissions restrictions
system.cpu.dtb.readAccesses                         0                       # DTB read accesses
system.cpu.dtb.writeAccesses                        0                       # DTB write accesses
system.cpu.dtb.instAccesses                         0                       # ITB inst accesses
system.cpu.dtb.hits                                 0                       # Total TLB (inst and data) hits
system.cpu.dtb.misses                               0                       # Total TLB (inst and data) misses
system.cpu.dtb.accesses                             0                       # Total TLB (inst and data) accesses
system.cpu.dtb.stage2_mmu.stage2_tlb.instHits            0                       # ITB inst hits
system.cpu.dtb.stage2_mmu.stage2_tlb.instMisses            0                       # ITB inst misses
system.cpu.dtb.stage2_mmu.stage2_tlb.readHits            0                       # DTB read hits
system.cpu.dtb.stage2_mmu.stage2_tlb.readMisses            0                       # DTB read misses
system.cpu.dtb.stage2_mmu.stage2_tlb.writeHits            0                       # DTB write hits
system.cpu.dtb.stage2_mmu.stage2_tlb.writeMisses            0                       # DTB write misses
system.cpu.dtb.stage2_mmu.stage2_tlb.inserts            0                       # Number of times an entry is inserted into the TLB
system.cpu.dtb.stage2_mmu.stage2_tlb.flushTlb            0                       # Number of times complete TLB was flushed
system.cpu.dtb.stage2_mmu.stage2_tlb.flushTlbMva            0                       # Number of times TLB was flushed by MVA
system.cpu.dtb.stage2_mmu.stage2_tlb.flushTlbMvaAsid            0                       # Number of times TLB was flushed by MVA & ASID
system.cpu.dtb.stage2_mmu.stage2_tlb.flushTlbAsid            0                       # Number of times TLB was flushed by ASID
system.cpu.dtb.stage2_mmu.stage2_tlb.flushedEntries            0                       # Number of entries that have been flushed from TLB
system.cpu.dtb.stage2_mmu.stage2_tlb.alignFaults            0                       # Number of TLB faults due to alignment restrictions
system.cpu.dtb.stage2_mmu.stage2_tlb.prefetchFaults            0                       # Number of TLB faults due to prefetch
system.cpu.dtb.stage2_mmu.stage2_tlb.domainFaults            0                       # Number of TLB faults due to domain restrictions
system.cpu.dtb.stage2_mmu.stage2_tlb.permsFaults            0                       # Number of TLB faults due to permissions restrictions
system.cpu.dtb.stage2_mmu.stage2_tlb.readAccesses            0                       # DTB read accesses
system.cpu.dtb.stage2_mmu.stage2_tlb.writeAccesses            0                       # DTB write accesses
system.cpu.dtb.stage2_mmu.stage2_tlb.instAccesses            0                       # ITB inst accesses
system.cpu.dtb.stage2_mmu.stage2_tlb.hits            0                       # Total TLB (inst and data) hits
system.cpu.dtb.stage2_mmu.stage2_tlb.misses            0                       # Total TLB (inst and data) misses
system.cpu.dtb.stage2_mmu.stage2_tlb.accesses            0                       # Total TLB (inst and data) accesses
system.cpu.dtb.stage2_mmu.stage2_tlb.walker.walks            0                       # Table walker walks requested
system.cpu.dtb.stage2_mmu.stage2_tlb.walker.requestOrigin_Requested::Data            0                       # Table walker requests started/completed, data/inst
system.cpu.dtb.stage2_mmu.stage2_tlb.walker.requestOrigin_Requested::Inst            0                       # Table walker requests started/completed, data/inst
system.cpu.dtb.stage2_mmu.stage2_tlb.walker.requestOrigin_Requested::total            0                       # Table walker requests started/completed, data/inst
system.cpu.dtb.stage2_mmu.stage2_tlb.walker.requestOrigin_Completed::Data            0                       # Table walker requests started/completed, data/inst
system.cpu.dtb.stage2_mmu.stage2_tlb.walker.requestOrigin_Completed::Inst            0                       # Table walker requests started/completed, data/inst
system.cpu.dtb.stage2_mmu.stage2_tlb.walker.requestOrigin_Completed::total            0                       # Table walker requests started/completed, data/inst
system.cpu.dtb.stage2_mmu.stage2_tlb.walker.requestOrigin::total            0                       # Table walker requests started/completed, data/inst
system.cpu.dtb.stage2_mmu.stage2_tlb.walker.power_state.pwrStateResidencyTicks::UNDEFINED     46695500                       # Cumulative time (in ticks) in various power states
system.cpu.dtb.walker.walks                         0                       # Table walker walks requested
system.cpu.dtb.walker.requestOrigin_Requested::Data            0                       # Table walker requests started/completed, data/inst
system.cpu.dtb.walker.requestOrigin_Requested::Inst            0                       # Table walker requests started/completed, data/inst
system.cpu.dtb.walker.requestOrigin_Requested::total            0                       # Table walker requests started/completed, data/inst
system.cpu.dtb.walker.requestOrigin_Completed::Data            0                       # Table walker requests started/completed, data/inst
system.cpu.dtb.walker.requestOrigin_Completed::Inst            0                       # Table walker requests started/completed, data/inst
system.cpu.dtb.walker.requestOrigin_Completed::total            0                       # Table walker requests started/completed, data/inst
system.cpu.dtb.walker.requestOrigin::total            0                       # Table walker requests started/completed, data/inst
system.cpu.dtb.walker.power_state.pwrStateResidencyTicks::UNDEFINED     46695500                       # Cumulative time (in ticks) in various power states
system.cpu.fetch2.intInstructions                9646                       # Number of integer instructions successfully decoded
system.cpu.fetch2.fpInstructions                    0                       # Number of floating point instructions successfully decoded
system.cpu.fetch2.vecInstructions                   0                       # Number of SIMD instructions successfully decoded
system.cpu.fetch2.loadInstructions               2181                       # Number of memory load instructions successfully decoded
system.cpu.fetch2.storeInstructions              1409                       # Number of memory store instructions successfully decoded
system.cpu.fetch2.amoInstructions                   0                       # Number of memory atomic instructions successfully decoded
system.cpu.icache.demand_hits::.cpu.inst         3126                       # number of demand (read+write) hits
system.cpu.icache.demand_hits::total             3126                       # number of demand (read+write) hits
system.cpu.icache.overall_hits::.cpu.inst         3126                       # number of overall hits
system.cpu.icache.overall_hits::total            3126                       # number of overall hits
system.cpu.icache.demand_misses::.cpu.inst          470                       # number of demand (read+write) misses
system.cpu.icache.demand_misses::total            470                       # number of demand (read+write) misses
system.cpu.icache.overall_misses::.cpu.inst          470                       # number of overall misses
system.cpu.icache.overall_misses::total           470                       # number of overall misses
system.cpu.icache.demand_miss_latency::.cpu.inst     33340500                       # number of demand (read+write) miss cycles
system.cpu.icache.demand_miss_latency::total     33340500                       # number of demand (read+write) miss cycles
system.cpu.icache.overall_miss_latency::.cpu.inst     33340500                       # number of overall miss cycles
system.cpu.icache.overall_miss_latency::total     33340500                       # number of overall miss cycles
system.cpu.icache.demand_accesses::.cpu.inst         3596                       # number of demand (read+write) accesses
system.cpu.icache.demand_accesses::total         3596                       # number of demand (read+write) accesses
system.cpu.icache.overall_accesses::.cpu.inst         3596                       # number of overall (read+write) accesses
system.cpu.icache.overall_accesses::total         3596                       # number of overall (read+write) accesses
system.cpu.icache.demand_miss_rate::.cpu.inst     0.130701                       # miss rate for demand accesses
system.cpu.icache.demand_miss_rate::total     0.130701                       # miss rate for demand accesses
system.cpu.icache.overall_miss_rate::.cpu.inst     0.130701                       # miss rate for overall accesses
system.cpu.icache.overall_miss_rate::total     0.130701                       # miss rate for overall accesses
system.cpu.icache.demand_avg_miss_latency::.cpu.inst 70937.234043                       # average overall miss latency
system.cpu.icache.demand_avg_miss_latency::total 70937.234043                       # average overall miss latency
system.cpu.icache.overall_avg_miss_latency::.cpu.inst 70937.234043                       # average overall miss latency
system.cpu.icache.overall_avg_miss_latency::total 70937.234043                       # average overall miss latency
system.cpu.icache.blocked_cycles::no_mshrs            0                       # number of cycles access was blocked
system.cpu.icache.blocked_cycles::no_targets            0                       # number of cycles access was blocked
system.cpu.icache.blocked::no_mshrs                 0                       # number of cycles access was blocked
system.cpu.icache.blocked::no_targets               0                       # number of cycles access was blocked
system.cpu.icache.avg_blocked_cycles::no_mshrs          nan                       # average number of cycles each access was blocked
system.cpu.icache.avg_blocked_cycles::no_targets          nan                       # average number of cycles each access was blocked
system.cpu.icache.writebacks::.writebacks          180                       # number of writebacks
system.cpu.icache.writebacks::total               180                       # number of writebacks
system.cpu.icache.demand_mshr_misses::.cpu.inst          470                       # number of demand (read+write) MSHR misses
system.cpu.icache.demand_mshr_misses::total          470                       # number of demand (read+write) MSHR misses
system.cpu.icache.overall_mshr_misses::.cpu.inst          470                       # number of overall MSHR misses
system.cpu.icache.overall_mshr_misses::total          470                       # number of overall MSHR misses
system.cpu.icache.demand_mshr_miss_latency::.cpu.inst     32870500                       # number of demand (read+write) MSHR miss cycles
system.cpu.icache.demand_mshr_miss_latency::total     32870500                       # number of demand (read+write) MSHR miss cycles
system.cpu.icache.overall_mshr_miss_latency::.cpu.inst     32870500                       # number of overall MSHR miss cycles
system.cpu.icache.overall_mshr_miss_latency::total     32870500                       # number of overall MSHR miss cycles
system.cpu.icache.demand_mshr_miss_rate::.cpu.inst     0.130701                       # mshr miss rate for demand accesses
system.cpu.icache.demand_mshr_miss_rate::total     0.130701                       # mshr miss rate for demand accesses
system.cpu.icache.overall_mshr_miss_rate::.cpu.inst     0.130701                       # mshr miss rate for overall accesses
system.cpu.icache.overall_mshr_miss_rate::total     0.130701                       # mshr miss rate for overall accesses
system.cpu.icache.demand_avg_mshr_miss_latency::.cpu.inst 69937.234043                       # average overall mshr miss latency
system.cpu.icache.demand_avg_mshr_miss_latency::total 69937.234043                       # average overall mshr miss latency
system.cpu.icache.overall_avg_mshr_miss_latency::.cpu.inst 69937.234043                       # average overall mshr miss latency
system.cpu.icache.overall_avg_mshr_miss_latency::total 69937.234043                       # average overall mshr miss latency
system.cpu.icache.replacements                    180                       # number of replacements
system.cpu.icache.ReadReq_hits::.cpu.inst         3126                       # number of ReadReq hits
system.cpu.icache.ReadReq_hits::total            3126                       # number of ReadReq hits
system.cpu.icache.ReadReq_misses::.cpu.inst          470                       # number of ReadReq misses
system.cpu.icache.ReadReq_misses::total           470                       # number of ReadReq misses
system.cpu.icache.ReadReq_miss_latency::.cpu.inst     33340500                       # number of ReadReq miss cycles
system.cpu.icache.ReadReq_miss_latency::total     33340500                       # number of ReadReq miss cycles
system.cpu.icache.ReadReq_accesses::.cpu.inst         3596                       # number of ReadReq accesses(hits+misses)
system.cpu.icache.ReadReq_accesses::total         3596                       # number of ReadReq accesses(hits+misses)
system.cpu.icache.ReadReq_miss_rate::.cpu.inst     0.130701                       # miss rate for ReadReq accesses
system.cpu.icache.ReadReq_miss_rate::total     0.130701                       # miss rate for ReadReq accesses
system.cpu.icache.ReadReq_avg_miss_latency::.cpu.inst 70937.234043                       # average ReadReq miss latency
system.cpu.icache.ReadReq_avg_miss_latency::total 70937.234043                       # average ReadReq miss latency
system.cpu.icache.ReadReq_mshr_misses::.cpu.inst          470                       # number of ReadReq MSHR misses
system.cpu.icache.ReadReq_mshr_misses::total          470                       # number of ReadReq MSHR misses
system.cpu.icache.ReadReq_mshr_miss_latency::.cpu.inst     32870500                       # number of ReadReq MSHR miss cycles
system.cpu.icache.ReadReq_mshr_miss_latency::total     32870500                       # number of ReadReq MSHR miss cycles
system.cpu.icache.ReadReq_mshr_miss_rate::.cpu.inst     0.130701                       # mshr miss rate for ReadReq accesses
system.cpu.icache.ReadReq_mshr_miss_rate::total     0.130701                       # mshr miss rate for ReadReq accesses
system.cpu.icache.ReadReq_avg_mshr_miss_latency::.cpu.inst 69937.234043                       # average ReadReq mshr miss latency
system.cpu.icache.ReadReq_avg_mshr_miss_latency::total 69937.234043                       # average ReadReq mshr miss latency
system.cpu.icache.power_state.pwrStateResidencyTicks::UNDEFINED     46695500                       # Cumulative time (in ticks) in various power states
system.cpu.icache.tags.tagsinuse           162.048252                       # Cycle average of tags in use
system.cpu.icache.tags.total_refs                3596                       # Total number of references to valid blocks.
system.cpu.icache.tags.sampled_refs               470                       # Sample count of references to valid blocks.
system.cpu.icache.tags.avg_refs              7.651064                       # Average number of references to valid blocks.
system.cpu.icache.tags.warmup_cycle             87500                       # Cycle when the warmup percentage was hit.
system.cpu.icache.tags.occ_blocks::.cpu.inst   162.048252                       # Average occupied blocks per requestor
system.cpu.icache.tags.occ_percent::.cpu.inst     0.316500                       # Average percentage of cache occupancy
system.cpu.icache.tags.occ_percent::total     0.316500                       # Average percentage of cache occupancy
system.cpu.icache.tags.occ_task_id_blocks::1024          290                       # Occupied blocks per task id
system.cpu.icache.tags.age_task_id_blocks_1024::0           76                       # Occupied blocks per task id
system.cpu.icache.tags.age_task_id_blocks_1024::1          214                       # Occupied blocks per task id
system.cpu.icache.tags.occ_task_id_percent::1024     0.566406                       # Percentage of cache occupancy per task id
system.cpu.icache.tags.tag_accesses              4066                       # Number of tag accesses
system.cpu.icache.tags.data_accesses             4066                       # Number of data accesses
system.cpu.icache.tags.power_state.pwrStateResidencyTicks::UNDEFINED     46695500                       # Cumulative time (in ticks) in various power states
system.cpu.itb.instHits                             0                       # ITB inst hits
system.cpu.itb.instMisses                           0                       # ITB inst misses
system.cpu.itb.readHits                             0                       # DTB read hits
system.cpu.itb.readMisses                           0                       # DTB read misses
system.cpu.itb.writeHits                            0                       # DTB write hits
system.cpu.itb.writeMisses                          0                       # DTB write misses
system.cpu.itb.inserts                              0                       # Number of times an entry is inserted into the TLB
system.cpu.itb.flushTlb                             0                       # Number of times complete TLB was flushed
system.cpu.itb.flushTlbMva                          0                       # Number of times TLB was flushed by MVA
system.cpu.itb.flushTlbMvaAsid                      0                       # Number of times TLB was flushed by MVA & ASID
system.cpu.itb.flushTlbAsid                         0                       # Number of times TLB was flushed by ASID
system.cpu.itb.flushedEntries                       0                       # Number of entries that have been flushed from TLB
system.cpu.itb.alignFaults                          0                       # Number of TLB faults due to alignment restrictions
system.cpu.itb.prefetchFaults                       0                       # Number of TLB faults due to prefetch
system.cpu.itb.domainFaults                         0                       # Number of TLB faults due to domain restrictions
system.cpu.itb.permsFaults                          0                       # Number of TLB faults due to permissions restrictions
system.cpu.itb.readAccesses                         0                       # DTB read accesses
system.cpu.itb.writeAccesses                        0                       # DTB write accesses
system.cpu.itb.instAccesses                         0                       # ITB inst accesses
system.cpu.itb.hits                                 0                       # Total TLB (inst and data) hits
system.cpu.itb.misses                               0                       # Total TLB (inst and data) misses
system.cpu.itb.accesses                             0                       # Total TLB (inst and data) accesses
system.cpu.itb.stage2_mmu.stage2_tlb.instHits            0                       # ITB inst hits
system.cpu.itb.stage2_mmu.stage2_tlb.instMisses            0                       # ITB inst misses
system.cpu.itb.stage2_mmu.stage2_tlb.readHits            0                       # DTB read hits
system.cpu.itb.stage2_mmu.stage2_tlb.readMisses            0                       # DTB read misses
system.cpu.itb.stage2_mmu.stage2_tlb.writeHits            0                       # DTB write hits
system.cpu.itb.stage2_mmu.stage2_tlb.writeMisses            0                       # DTB write misses
system.cpu.itb.stage2_mmu.stage2_tlb.inserts            0                       # Number of times an entry is inserted into the TLB
system.cpu.itb.stage2_mmu.stage2_tlb.flushTlb            0                       # Number of times complete TLB was flushed
system.cpu.itb.stage2_mmu.stage2_tlb.flushTlbMva            0                       # Number of times TLB was flushed by MVA
system.cpu.itb.stage2_mmu.stage2_tlb.flushTlbMvaAsid            0                       # Number of times TLB was flushed by MVA & ASID
system.cpu.itb.stage2_mmu.stage2_tlb.flushTlbAsid            0                       # Number of times TLB was flushed by ASID
system.cpu.itb.stage2_mmu.stage2_tlb.flushedEntries            0                       # Number of entries that have been flushed from TLB
system.cpu.itb.stage2_mmu.stage2_tlb.alignFaults            0                       # Number of TLB faults due to alignment restrictions
system.cpu.itb.stage2_mmu.stage2_tlb.prefetchFaults            0                       # Number of TLB faults due to prefetch
system.cpu.itb.stage2_mmu.stage2_tlb.domainFaults            0                       # Number of TLB faults due to domain restrictions
system.cpu.itb.stage2_mmu.stage2_tlb.permsFaults            0                       # Number of TLB faults due to permissions restrictions
system.cpu.itb.stage2_mmu.stage2_tlb.readAccesses            0                       # DTB read accesses
system.cpu.itb.stage2_mmu.stage2_tlb.writeAccesses            0                       # DTB write accesses
system.cpu.itb.stage2_mmu.stage2_tlb.instAccesses            0                       # ITB inst accesses
system.cpu.itb.stage2_mmu.stage2_tlb.hits            0                       # Total TLB (inst and data) hits
system.cpu.itb.stage2_mmu.stage2_tlb.misses            0                       # Total TLB (inst and data) misses
system.cpu.itb.stage2_mmu.stage2_tlb.accesses            0                       # Total TLB (inst and data) accesses
system.cpu.itb.stage2_mmu.stage2_tlb.walker.walks            0                       # Table walker walks requested
system.cpu.itb.stage2_mmu.stage2_tlb.walker.requestOrigin_Requested::Data            0                       # Table walker requests started/completed, data/inst
system.cpu.itb.stage2_mmu.stage2_tlb.walker.requestOrigin_Requested::Inst            0                       # Table walker requests started/completed, data/inst
system.cpu.itb.stage2_mmu.stage2_tlb.walker.requestOrigin_Requested::total            0                       # Table walker requests started/completed, data/inst
system.cpu.itb.stage2_mmu.stage2_tlb.walker.requestOrigin_Completed::Data            0                       # Table walker requests started/completed, data/inst
system.cpu.itb.stage2_mmu.stage2_tlb.walker.requestOrigin_Completed::Inst            0                       # Table walker requests started/completed, data/inst
system.cpu.itb.stage2_mmu.stage2_tlb.walker.requestOrigin_Completed::total            0                       # Table walker requests started/completed, data/inst
system.cpu.itb.stage2_mmu.stage2_tlb.walker.requestOrigin::total            0                       # Table walker requests started/completed, data/inst
system.cpu.itb.stage2_mmu.stage2_tlb.walker.power_state.pwrStateResidencyTicks::UNDEFINED     46695500                       # Cumulative time (in ticks) in various power states
system.cpu.itb.walker.walks                         0                       # Table walker walks requested
system.cpu.itb.walker.requestOrigin_Requested::Data            0                       # Table walker requests started/completed, data/inst
system.cpu.itb.walker.requestOrigin_Requested::Inst            0                       # Table walker requests started/completed, data/inst
system.cpu.itb.walker.requestOrigin_Requested::total            0                       # Table walker requests started/completed, data/inst
system.cpu.itb.walker.requestOrigin_Completed::Data            0                       # Table walker requests started/completed, data/inst
system.cpu.itb.walker.requestOrigin_Completed::Inst            0                       # Table walker requests started/completed, data/inst
system.cpu.itb.walker.requestOrigin_Completed::total            0                       # Table walker requests started/completed, data/inst
system.cpu.itb.walker.requestOrigin::total            0                       # Table walker requests started/completed, data/inst
system.cpu.itb.walker.power_state.pwrStateResidencyTicks::UNDEFINED     46695500                       # Cumulative time (in ticks) in various power states
system.cpu.power_state.pwrStateResidencyTicks::ON     46695500                       # Cumulative time (in ticks) in various power states
system.cpu.thread_0.numInsts                     8862                       # Number of Instructions committed
system.cpu.thread_0.numOps                      10235                       # Number of Ops committed
system.cpu.thread_0.numMemRefs                      0                       # Number of Memory References
system.cpu_clk_domain.clock                       500                       # Clock period in ticks
system.cpu_voltage_domain.voltage                   1                       # Voltage in Volts
system.l2.demand_hits::.cpu.inst                   55                       # number of demand (read+write) hits
system.l2.demand_hits::.cpu.data                   15                       # number of demand (read+write) hits
system.l2.demand_hits::total                       70                       # number of demand (read+write) hits
system.l2.overall_hits::.cpu.inst                  55                       # number of overall hits
system.l2.overall_hits::.cpu.data                  15                       # number of overall hits
system.l2.overall_hits::total                      70                       # number of overall hits
system.l2.demand_misses::.cpu.inst                415                       # number of demand (read+write) misses
system.l2.demand_misses::.cpu.data                192                       # number of demand (read+write) misses
system.l2.demand_misses::total                    607                       # number of demand (read+write) misses
system.l2.overall_misses::.cpu.inst               415                       # number of overall misses
system.l2.overall_misses::.cpu.data               192                       # number of overall misses
system.l2.overall_misses::total                   607                       # number of overall misses
system.l2.demand_miss_latency::.cpu.inst     31527500                       # number of demand (read+write) miss cycles
system.l2.demand_miss_latency::.cpu.data     15927000                       # number of demand (read+write) miss cycles
system.l2.demand_miss_latency::total         47454500                       # number of demand (read+write) miss cycles
system.l2.overall_miss_latency::.cpu.inst     31527500                       # number of overall miss cycles
system.l2.overall_miss_latency::.cpu.data     15927000                       # number of overall miss cycles
system.l2.overall_miss_latency::total        47454500                       # number of overall miss cycles
system.l2.demand_accesses::.cpu.inst              470                       # number of demand (read+write) accesses
system.l2.demand_accesses::.cpu.data              207                       # number of demand (read+write) accesses
system.l2.demand_accesses::total                  677                       # number of demand (read+write) accesses
system.l2.overall_accesses::.cpu.inst             470                       # number of overall (read+write) accesses
system.l2.overall_accesses::.cpu.data             207                       # number of overall (read+write) accesses
system.l2.overall_accesses::total                 677                       # number of overall (read+write) accesses
system.l2.demand_miss_rate::.cpu.inst        0.882979                       # miss rate for demand accesses
system.l2.demand_miss_rate::.cpu.data        0.927536                       # miss rate for demand accesses
system.l2.demand_miss_rate::total            0.896603                       # miss rate for demand accesses
system.l2.overall_miss_rate::.cpu.inst       0.882979                       # miss rate for overall accesses
system.l2.overall_miss_rate::.cpu.data       0.927536                       # miss rate for overall accesses
system.l2.overall_miss_rate::total           0.896603                       # miss rate for overall accesses
system.l2.demand_avg_miss_latency::.cpu.inst 75969.879518                       # average overall miss latency
system.l2.demand_avg_miss_latency::.cpu.data 82953.125000                       # average overall miss latency
system.l2.demand_avg_miss_latency::total 78178.747941                       # average overall miss latency
system.l2.overall_avg_miss_latency::.cpu.inst 75969.879518                       # average overall miss latency
system.l2.overall_avg_miss_latency::.cpu.data 82953.125000                       # average overall miss latency
system.l2.overall_avg_miss_latency::total 78178.747941                       # average overall miss latency
system.l2.blocked_cycles::no_mshrs                  0                       # number of cycles access was blocked
system.l2.blocked_cycles::no_targets                0                       # number of cycles access was blocked
system.l2.blocked::no_mshrs                         0                       # number of cycles access was blocked
system.l2.blocked::no_targets                       0                       # number of cycles access was blocked
system.l2.avg_blocked_cycles::no_mshrs            nan                       # average number of cycles each access was blocked
system.l2.avg_blocked_cycles::no_targets          nan                       # average number of cycles each access was blocked
system.l2.demand_mshr_hits::.cpu.inst               1                       # number of demand (read+write) MSHR hits
system.l2.demand_mshr_hits::.cpu.data               2                       # number of demand (read+write) MSHR hits
system.l2.demand_mshr_hits::total                   3                       # number of demand (read+write) MSHR hits
system.l2.overall_mshr_hits::.cpu.inst              1                       # number of overall MSHR hits
system.l2.overall_mshr_hits::.cpu.data              2                       # number of overall MSHR hits
system.l2.overall_mshr_hits::total                  3                       # number of overall MSHR hits
system.l2.demand_mshr_misses::.cpu.inst           414                       # number of demand (read+write) MSHR misses
system.l2.demand_mshr_misses::.cpu.data           190                       # number of demand (read+write) MSHR misses
system.l2.demand_mshr_misses::total               604                       # number of demand (read+write) MSHR misses
system.l2.overall_mshr_misses::.cpu.inst          414                       # number of overall MSHR misses
system.l2.overall_mshr_misses::.cpu.data          190                       # number of overall MSHR misses
system.l2.overall_mshr_misses::total              604                       # number of overall MSHR misses
system.l2.demand_mshr_miss_latency::.cpu.inst     27318500                       # number of demand (read+write) MSHR miss cycles
system.l2.demand_mshr_miss_latency::.cpu.data     13892500                       # number of demand (read+write) MSHR miss cycles
system.l2.demand_mshr_miss_latency::total     41211000                       # number of demand (read+write) MSHR miss cycles
system.l2.overall_mshr_miss_latency::.cpu.inst     27318500                       # number of overall MSHR miss cycles
system.l2.overall_mshr_miss_latency::.cpu.data     13892500                       # number of overall MSHR miss cycles
system.l2.overall_mshr_miss_latency::total     41211000                       # number of overall MSHR miss cycles
system.l2.demand_mshr_miss_rate::.cpu.inst     0.880851                       # mshr miss rate for demand accesses
system.l2.demand_mshr_miss_rate::.cpu.data     0.917874                       # mshr miss rate for demand accesses
system.l2.demand_mshr_miss_rate::total       0.892171                       # mshr miss rate for demand accesses
system.l2.overall_mshr_miss_rate::.cpu.inst     0.880851                       # mshr miss rate for overall accesses
system.l2.overall_mshr_miss_rate::.cpu.data     0.917874                       # mshr miss rate for overall accesses
system.l2.overall_mshr_miss_rate::total      0.892171                       # mshr miss rate for overall accesses
system.l2.demand_avg_mshr_miss_latency::.cpu.inst 65986.714976                       # average overall mshr miss latency
system.l2.demand_avg_mshr_miss_latency::.cpu.data 73118.421053                       # average overall mshr miss latency
system.l2.demand_avg_mshr_miss_latency::total 68230.132450                       # average overall mshr miss latency
system.l2.overall_avg_mshr_miss_latency::.cpu.inst 65986.714976                       # average overall mshr miss latency
system.l2.overall_avg_mshr_miss_latency::.cpu.data 73118.421053                       # average overall mshr miss latency
system.l2.overall_avg_mshr_miss_latency::total 68230.132450                       # average overall mshr miss latency
system.l2.replacements                              0                       # number of replacements
system.l2.WritebackDirty_hits::.writebacks            3                       # number of WritebackDirty hits
system.l2.WritebackDirty_hits::total                3                       # number of WritebackDirty hits
system.l2.WritebackDirty_accesses::.writebacks            3                       # number of WritebackDirty accesses(hits+misses)
system.l2.WritebackDirty_accesses::total            3                       # number of WritebackDirty accesses(hits+misses)
system.l2.WritebackClean_hits::.writebacks          168                       # number of WritebackClean hits
system.l2.WritebackClean_hits::total              168                       # number of WritebackClean hits
system.l2.WritebackClean_accesses::.writebacks          168                       # number of WritebackClean accesses(hits+misses)
system.l2.WritebackClean_accesses::total          168                       # number of WritebackClean accesses(hits+misses)
system.l2.ReadExReq_misses::.cpu.data              79                       # number of ReadExReq misses
system.l2.ReadExReq_misses::total                  79                       # number of ReadExReq misses
system.l2.ReadExReq_miss_latency::.cpu.data      6257000                       # number of ReadExReq miss cycles
system.l2.ReadExReq_miss_latency::total       6257000                       # number of ReadExReq miss cycles
system.l2.ReadExReq_accesses::.cpu.data            79                       # number of ReadExReq accesses(hits+misses)
system.l2.ReadExReq_accesses::total                79                       # number of ReadExReq accesses(hits+misses)
system.l2.ReadExReq_miss_rate::.cpu.data            1                       # miss rate for ReadExReq accesses
system.l2.ReadExReq_miss_rate::total                1                       # miss rate for ReadExReq accesses
system.l2.ReadExReq_avg_miss_latency::.cpu.data 79202.531646                       # average ReadExReq miss latency
system.l2.ReadExReq_avg_miss_latency::total 79202.531646                       # average ReadExReq miss latency
system.l2.ReadExReq_mshr_misses::.cpu.data           79                       # number of ReadExReq MSHR misses
system.l2.ReadExReq_mshr_misses::total             79                       # number of ReadExReq MSHR misses
system.l2.ReadExReq_mshr_miss_latency::.cpu.data      5467000                       # number of ReadExReq MSHR miss cycles
system.l2.ReadExReq_mshr_miss_latency::total      5467000                       # number of ReadExReq MSHR miss cycles
system.l2.ReadExReq_mshr_miss_rate::.cpu.data            1                       # mshr miss rate for ReadExReq accesses
system.l2.ReadExReq_mshr_miss_rate::total            1                       # mshr miss rate for ReadExReq accesses
system.l2.ReadExReq_avg_mshr_miss_latency::.cpu.data 69202.531646                       # average ReadExReq mshr miss latency
system.l2.ReadExReq_avg_mshr_miss_latency::total 69202.531646                       # average ReadExReq mshr miss latency
system.l2.ReadCleanReq_hits::.cpu.inst             55                       # number of ReadCleanReq hits
system.l2.ReadCleanReq_hits::total                 55                       # number of ReadCleanReq hits
system.l2.ReadCleanReq_misses::.cpu.inst          415                       # number of ReadCleanReq misses
system.l2.ReadCleanReq_misses::total              415                       # number of ReadCleanReq misses
system.l2.ReadCleanReq_miss_latency::.cpu.inst     31527500                       # number of ReadCleanReq miss cycles
system.l2.ReadCleanReq_miss_latency::total     31527500                       # number of ReadCleanReq miss cycles
system.l2.ReadCleanReq_accesses::.cpu.inst          470                       # number of ReadCleanReq accesses(hits+misses)
system.l2.ReadCleanReq_accesses::total            470                       # number of ReadCleanReq accesses(hits+misses)
system.l2.ReadCleanReq_miss_rate::.cpu.inst     0.882979                       # miss rate for ReadCleanReq accesses
system.l2.ReadCleanReq_miss_rate::total      0.882979                       # miss rate for ReadCleanReq accesses
system.l2.ReadCleanReq_avg_miss_latency::.cpu.inst 75969.879518                       # average ReadCleanReq miss latency
system.l2.ReadCleanReq_avg_miss_latency::total 75969.879518                       # average ReadCleanReq miss latency
system.l2.ReadCleanReq_mshr_hits::.cpu.inst            1                       # number of ReadCleanReq MSHR hits
system.l2.ReadCleanReq_mshr_hits::total             1                       # number of ReadCleanReq MSHR hits
system.l2.ReadCleanReq_mshr_misses::.cpu.inst          414                       # number of ReadCleanReq MSHR misses
system.l2.ReadCleanReq_mshr_misses::total          414                       # number of ReadCleanReq MSHR misses
system.l2.ReadCleanReq_mshr_miss_latency::.cpu.inst     27318500                       # number of ReadCleanReq MSHR miss cycles
system.l2.ReadCleanReq_mshr_miss_latency::total     27318500                       # number of ReadCleanReq MSHR miss cycles
system.l2.ReadCleanReq_mshr_miss_rate::.cpu.inst     0.880851                       # mshr miss rate for ReadCleanReq accesses
system.l2.ReadCleanReq_mshr_miss_rate::total     0.880851                       # mshr miss rate for ReadCleanReq accesses
system.l2.ReadCleanReq_avg_mshr_miss_latency::.cpu.inst 65986.714976                       # average ReadCleanReq mshr miss latency
system.l2.ReadCleanReq_avg_mshr_miss_latency::total 65986.714976                       # average ReadCleanReq mshr miss latency
system.l2.ReadSharedReq_hits::.cpu.data            15                       # number of ReadSharedReq hits
system.l2.ReadSharedReq_hits::total                15                       # number of ReadSharedReq hits
system.l2.ReadSharedReq_misses::.cpu.data          113                       # number of ReadSharedReq misses
system.l2.ReadSharedReq_misses::total             113                       # number of ReadSharedReq misses
system.l2.ReadSharedReq_miss_latency::.cpu.data      9670000                       # number of ReadSharedReq miss cycles
system.l2.ReadSharedReq_miss_latency::total      9670000                       # number of ReadSharedReq miss cycles
system.l2.ReadSharedReq_accesses::.cpu.data          128                       # number of ReadSharedReq accesses(hits+misses)
system.l2.ReadSharedReq_accesses::total           128                       # number of ReadSharedReq accesses(hits+misses)
system.l2.ReadSharedReq_miss_rate::.cpu.data     0.882812                       # miss rate for ReadSharedReq accesses
system.l2.ReadSharedReq_miss_rate::total     0.882812                       # miss rate for ReadSharedReq accesses
system.l2.ReadSharedReq_avg_miss_latency::.cpu.data 85575.221239                       # average ReadSharedReq miss latency
system.l2.ReadSharedReq_avg_miss_latency::total 85575.221239                       # average ReadSharedReq miss latency
system.l2.ReadSharedReq_mshr_hits::.cpu.data            2                       # number of ReadSharedReq MSHR hits
system.l2.ReadSharedReq_mshr_hits::total            2                       # number of ReadSharedReq MSHR hits
system.l2.ReadSharedReq_mshr_misses::.cpu.data          111                       # number of ReadSharedReq MSHR misses
system.l2.ReadSharedReq_mshr_misses::total          111                       # number of ReadSharedReq MSHR misses
system.l2.ReadSharedReq_mshr_miss_latency::.cpu.data      8425500                       # number of ReadSharedReq MSHR miss cycles
system.l2.ReadSharedReq_mshr_miss_latency::total      8425500                       # number of ReadSharedReq MSHR miss cycles
system.l2.ReadSharedReq_mshr_miss_rate::.cpu.data     0.867188                       # mshr miss rate for ReadSharedReq accesses
system.l2.ReadSharedReq_mshr_miss_rate::total     0.867188                       # mshr miss rate for ReadSharedReq accesses
system.l2.ReadSharedReq_avg_mshr_miss_latency::.cpu.data 75905.405405                       # average ReadSharedReq mshr miss latency
system.l2.ReadSharedReq_avg_mshr_miss_latency::total 75905.405405                       # average ReadSharedReq mshr miss latency
system.l2.power_state.pwrStateResidencyTicks::UNDEFINED     46695500                       # Cumulative time (in ticks) in various power states
system.l2.tags.tagsinuse                   306.732175                       # Cycle average of tags in use
system.l2.tags.total_refs                         849                       # Total number of references to valid blocks.
system.l2.tags.sampled_refs                       604                       # Sample count of references to valid blocks.
system.l2.tags.avg_refs                      1.405629                       # Average number of references to valid blocks.
system.l2.tags.warmup_cycle                     77000                       # Cycle when the warmup percentage was hit.
system.l2.tags.occ_blocks::.cpu.inst       204.512666                       # Average occupied blocks per requestor
system.l2.tags.occ_blocks::.cpu.data       102.219509                       # Average occupied blocks per requestor
system.l2.tags.occ_percent::.cpu.inst        0.006241                       # Average percentage of cache occupancy
system.l2.tags.occ_percent::.cpu.data        0.003119                       # Average percentage of cache occupancy
system.l2.tags.occ_percent::total            0.009361                       # Average percentage of cache occupancy
system.l2.tags.occ_task_id_blocks::1024           604                       # Occupied blocks per task id
system.l2.tags.age_task_id_blocks_1024::0          128                       # Occupied blocks per task id
system.l2.tags.age_task_id_blocks_1024::1          476                       # Occupied blocks per task id
system.l2.tags.occ_task_id_percent::1024     0.018433                       # Percentage of cache occupancy per task id
system.l2.tags.tag_accesses                      7420                       # Number of tag accesses
system.l2.tags.data_accesses                     7420                       # Number of data accesses
system.l2.tags.power_state.pwrStateResidencyTicks::UNDEFINED     46695500                       # Cumulative time (in ticks) in various power states
system.mem_ctrls.avgPriority_.cpu.inst::samples       414.00                       # Average QoS priority value for accepted requests
system.mem_ctrls.avgPriority_.cpu.data::samples       190.00                       # Average QoS priority value for accepted requests
system.mem_ctrls.priorityMinLatency      0.000000018750                       # per QoS priority minimum request to response latency (s)
system.mem_ctrls.priorityMaxLatency      0.000000568000                       # per QoS priority maximum request to response latency (s)
system.mem_ctrls.numReadWriteTurnArounds            0                       # Number of turnarounds from READ to WRITE
system.mem_ctrls.numWriteReadTurnArounds            0                       # Number of turnarounds from WRITE to READ
system.mem_ctrls.numStayReadState                1206                       # Number of times bus staying in READ state
system.mem_ctrls.numStayWriteState                  0                       # Number of times bus staying in WRITE state
system.mem_ctrls.readReqs                         604                       # Number of read requests accepted
system.mem_ctrls.writeReqs                          0                       # Number of write requests accepted
system.mem_ctrls.readBursts                       604                       # Number of controller read bursts, including those serviced by the write queue
system.mem_ctrls.writeBursts                        0                       # Number of controller write bursts, including those merged in the write queue
system.mem_ctrls.servicedByWrQ                      0                       # Number of controller read bursts serviced by the write queue
system.mem_ctrls.mergedWrBursts                     0                       # Number of controller write bursts merged with an existing one
system.mem_ctrls.neitherReadNorWriteReqs            0                       # Number of requests that are neither read nor write
system.mem_ctrls.avgRdQLen                       1.17                       # Average read queue length when enqueuing
system.mem_ctrls.avgWrQLen                       0.00                       # Average write queue length when enqueuing
system.mem_ctrls.numRdRetry                         0                       # Number of times read queue was full causing retry
system.mem_ctrls.numWrRetry                         0                       # Number of times write queue was full causing retry
system.mem_ctrls.readPktSize::0                     0                       # Read request sizes (log2)
system.mem_ctrls.readPktSize::1                     0                       # Read request sizes (log2)
system.mem_ctrls.readPktSize::2                     0                       # Read request sizes (log2)
system.mem_ctrls.readPktSize::3                     0                       # Read request sizes (log2)
system.mem_ctrls.readPktSize::4                     0                       # Read request sizes (log2)
system.mem_ctrls.readPktSize::5                     0                       # Read request sizes (log2)
system.mem_ctrls.readPktSize::6                   604                       # Read request sizes (log2)
system.mem_ctrls.writePktSize::0                    0                       # Write request sizes (log2)
system.mem_ctrls.writePktSize::1                    0                       # Write request sizes (log2)
system.mem_ctrls.writePktSize::2                    0                       # Write request sizes (log2)
system.mem_ctrls.writePktSize::3                    0                       # Write request sizes (log2)
system.mem_ctrls.writePktSize::4                    0                       # Write request sizes (log2)
system.mem_ctrls.writePktSize::5                    0                       # Write request sizes (log2)
system.mem_ctrls.writePktSize::6                    0                       # Write request sizes (log2)
system.mem_ctrls.rdQLenPdf::0                     511                       # What read queue length does an incoming req see
system.mem_ctrls.rdQLenPdf::1                      85                       # What read queue length does an incoming req see
[...]
system.mem_ctrls.dram.bw_read::.cpu.data    260410532                       # Total read bandwidth from this memory (bytes/s)
system.mem_ctrls.dram.bw_read::total        827831376                       # Total read bandwidth from this memory (bytes/s)
system.mem_ctrls.dram.bw_inst_read::.cpu.inst    567420844                       # Instruction read bandwidth from this memory (bytes/s)
system.mem_ctrls.dram.bw_inst_read::total    567420844                       # Instruction read bandwidth from this memory (bytes/s)
system.mem_ctrls.dram.bw_total::.cpu.inst    567420844                       # Total bandwidth to/from this memory (bytes/s)
system.mem_ctrls.dram.bw_total::.cpu.data    260410532                       # Total bandwidth to/from this memory (bytes/s)
system.mem_ctrls.dram.bw_total::total       827831376                       # Total bandwidth to/from this memory (bytes/s)
system.mem_ctrls.dram.readBursts                  604                       # Number of DRAM read bursts
system.mem_ctrls.dram.writeBursts                   0                       # Number of DRAM write bursts
system.mem_ctrls.dram.perBankRdBursts::0           59                       # Per bank write bursts
system.mem_ctrls.dram.perBankRdBursts::1           21                       # Per bank write bursts
system.mem_ctrls.dram.perBankRdBursts::2           29                       # Per bank write bursts
system.mem_ctrls.dram.perBankRdBursts::3           63                       # Per bank write bursts
system.mem_ctrls.dram.perBankRdBursts::4           50                       # Per bank write bursts
system.mem_ctrls.dram.perBankRdBursts::5            0                       # Per bank write bursts
system.mem_ctrls.dram.perBankRdBursts::6           27                       # Per bank write bursts
system.mem_ctrls.dram.perBankRdBursts::7           37                       # Per bank write bursts
system.mem_ctrls.dram.perBankRdBursts::8           56                       # Per bank write bursts
system.mem_ctrls.dram.perBankRdBursts::9           40                       # Per bank write bursts
system.mem_ctrls.dram.perBankRdBursts::10           47                       # Per bank write bursts
system.mem_ctrls.dram.perBankRdBursts::11           15                       # Per bank write bursts
system.mem_ctrls.dram.perBankRdBursts::12            0                       # Per bank write bursts
system.mem_ctrls.dram.perBankRdBursts::13           25                       # Per bank write bursts
system.mem_ctrls.dram.perBankRdBursts::14           89                       # Per bank write bursts
system.mem_ctrls.dram.perBankRdBursts::15           46                       # Per bank write bursts
system.mem_ctrls.dram.perBankWrBursts::0            0                       # Per bank write bursts
system.mem_ctrls.dram.perBankWrBursts::1            0                       # Per bank write bursts
system.mem_ctrls.dram.perBankWrBursts::2            0                       # Per bank write bursts
system.mem_ctrls.dram.perBankWrBursts::3            0                       # Per bank write bursts
system.mem_ctrls.dram.perBankWrBursts::4            0                       # Per bank write bursts
system.mem_ctrls.dram.perBankWrBursts::5            0                       # Per bank write bursts
system.mem_ctrls.dram.perBankWrBursts::6            0                       # Per bank write bursts
system.mem_ctrls.dram.perBankWrBursts::7            0                       # Per bank write bursts
system.mem_ctrls.dram.perBankWrBursts::8            0                       # Per bank write bursts
system.mem_ctrls.dram.perBankWrBursts::9            0                       # Per bank write bursts
system.mem_ctrls.dram.perBankWrBursts::10            0                       # Per bank write bursts
system.mem_ctrls.dram.perBankWrBursts::11            0                       # Per bank write bursts
system.mem_ctrls.dram.perBankWrBursts::12            0                       # Per bank write bursts
system.mem_ctrls.dram.perBankWrBursts::13            0                       # Per bank write bursts
system.mem_ctrls.dram.perBankWrBursts::14            0                       # Per bank write bursts
system.mem_ctrls.dram.perBankWrBursts::15            0                       # Per bank write bursts
system.mem_ctrls.dram.totQLat                 5097250                       # Total ticks spent queuing
system.mem_ctrls.dram.totBusLat               3020000                       # Total ticks spent in databus transfers
system.mem_ctrls.dram.totMemAccLat           16422250                       # Total ticks spent from burst creation until serviced by the DRAM
system.mem_ctrls.dram.avgQLat                 8439.16                       # Average queueing delay per DRAM burst
system.mem_ctrls.dram.avgBusLat               5000.00                       # Average bus latency per DRAM burst
system.mem_ctrls.dram.avgMemAccLat           27189.16                       # Average memory access latency per DRAM burst
system.mem_ctrls.dram.readRowHits                 451                       # Number of row buffer hits during reads
system.mem_ctrls.dram.writeRowHits                  0                       # Number of row buffer hits during writes
system.mem_ctrls.dram.readRowHitRate            74.67                       # Row buffer hit rate for reads
system.mem_ctrls.dram.writeRowHitRate             nan                       # Row buffer hit rate for writes
system.mem_ctrls.dram.bytesPerActivate::samples          143                       # Bytes accessed per row activation
system.mem_ctrls.dram.bytesPerActivate::mean   257.342657                       # Bytes accessed per row activation
system.mem_ctrls.dram.bytesPerActivate::gmean   176.215047                       # Bytes accessed per row activation
system.mem_ctrls.dram.bytesPerActivate::stdev   250.932209                       # Bytes accessed per row activation
system.mem_ctrls.dram.bytesPerActivate::0-127           43     30.07%     30.07% # Bytes accessed per row activation
system.mem_ctrls.dram.bytesPerActivate::128-255           43     30.07%     60.14% # Bytes accessed per row activation
system.mem_ctrls.dram.bytesPerActivate::256-383           28     19.58%     79.72% # Bytes accessed per row activation
system.mem_ctrls.dram.bytesPerActivate::384-511            9      6.29%     86.01% # Bytes accessed per row activation
system.mem_ctrls.dram.bytesPerActivate::512-639            6      4.20%     90.21% # Bytes accessed per row activation
system.mem_ctrls.dram.bytesPerActivate::640-767            3      2.10%     92.31% # Bytes accessed per row activation
system.mem_ctrls.dram.bytesPerActivate::768-895            3      2.10%     94.41% # Bytes accessed per row activation
system.mem_ctrls.dram.bytesPerActivate::896-1023            1      0.70%     95.10% # Bytes accessed per row activation
system.mem_ctrls.dram.bytesPerActivate::1024-1151            7      4.90%    100.00% # Bytes accessed per row activation
system.mem_ctrls.dram.bytesPerActivate::total          143                       # Bytes accessed per row activation
system.mem_ctrls.dram.bytesRead                 38656                       # Total number of bytes read from DRAM
system.mem_ctrls.dram.bytesWritten                  0                       # Total number of bytes written to DRAM
system.mem_ctrls.dram.avgRdBW              827.831376                       # Average DRAM read bandwidth in MiBytes/s
system.mem_ctrls.dram.avgWrBW                       0                       # Average DRAM write bandwidth in MiBytes/s
system.mem_ctrls.dram.peakBW                 12800.00                       # Theoretical peak bandwidth in MiByte/s
system.mem_ctrls.dram.busUtil                    6.47                       # Data bus utilization in percentage
system.mem_ctrls.dram.busUtilRead                6.47                       # Data bus utilization in percentage for reads
system.mem_ctrls.dram.busUtilWrite               0.00                       # Data bus utilization in percentage for writes
system.mem_ctrls.dram.pageHitRate               74.67                       # Row buffer hit rate, read and write combined
system.mem_ctrls.dram.power_state.pwrStateResidencyTicks::UNDEFINED     46695500                       # Cumulative time (in ticks) in various power states
system.mem_ctrls.dram.rank0.actEnergy          506940                       # Energy for activate commands per rank (pJ)
system.mem_ctrls.dram.rank0.preEnergy          246675                       # Energy for precharge commands per rank (pJ)
system.mem_ctrls.dram.rank0.readEnergy        2042040                       # Energy for read commands per rank (pJ)
system.mem_ctrls.dram.rank0.writeEnergy             0                       # Energy for write commands per rank (pJ)
system.mem_ctrls.dram.rank0.refreshEnergy 3073200.000000                       # Energy for refresh commands per rank (pJ)
system.mem_ctrls.dram.rank0.actBackEnergy     20896770                       # Energy for active background per rank (pJ)
system.mem_ctrls.dram.rank0.preBackEnergy       334080                       # Energy for precharge background per rank (pJ)
system.mem_ctrls.dram.rank0.actPowerDownEnergy            0                       # Energy for active power-down per rank (pJ)
system.mem_ctrls.dram.rank0.prePowerDownEnergy            0                       # Energy for precharge power-down per rank (pJ)
system.mem_ctrls.dram.rank0.selfRefreshEnergy            0                       # Energy for self refresh per rank (pJ)
system.mem_ctrls.dram.rank0.totalEnergy      27099705                       # Total energy per rank (pJ)
system.mem_ctrls.dram.rank0.averagePower   580.349391                       # Core power per rank (mW)
system.mem_ctrls.dram.rank0.totalIdleTime            0                       # Total Idle time Per DRAM Rank
system.mem_ctrls.dram.rank0.pwrStateTime::IDLE       703000                       # Time in different power states
system.mem_ctrls.dram.rank0.pwrStateTime::REF      1300000                       # Time in different power states
system.mem_ctrls.dram.rank0.pwrStateTime::SREF            0                       # Time in different power states
system.mem_ctrls.dram.rank0.pwrStateTime::PRE_PDN            0                       # Time in different power states
system.mem_ctrls.dram.rank0.pwrStateTime::ACT     44692500                       # Time in different power states
system.mem_ctrls.dram.rank0.pwrStateTime::ACT_PDN            0                       # Time in different power states
system.mem_ctrls.dram.rank1.actEnergy          585480                       # Energy for activate commands per rank (pJ)
system.mem_ctrls.dram.rank1.preEnergy          296010                       # Energy for precharge commands per rank (pJ)
system.mem_ctrls.dram.rank1.readEnergy        2270520                       # Energy for read commands per rank (pJ)
system.mem_ctrls.dram.rank1.writeEnergy             0                       # Energy for write commands per rank (pJ)
system.mem_ctrls.dram.rank1.refreshEnergy 3073200.000000                       # Energy for refresh commands per rank (pJ)
system.mem_ctrls.dram.rank1.actBackEnergy     20435640                       # Energy for active background per rank (pJ)
system.mem_ctrls.dram.rank1.preBackEnergy       722400                       # Energy for precharge background per rank (pJ)
system.mem_ctrls.dram.rank1.actPowerDownEnergy            0                       # Energy for active power-down per rank (pJ)
system.mem_ctrls.dram.rank1.prePowerDownEnergy            0                       # Energy for precharge power-down per rank (pJ)
system.mem_ctrls.dram.rank1.selfRefreshEnergy            0                       # Energy for self refresh per rank (pJ)
system.mem_ctrls.dram.rank1.totalEnergy      27383250                       # Total energy per rank (pJ)
system.mem_ctrls.dram.rank1.averagePower   586.421604                       # Core power per rank (mW)
system.mem_ctrls.dram.rank1.totalIdleTime            0                       # Total Idle time Per DRAM Rank
system.mem_ctrls.dram.rank1.pwrStateTime::IDLE      1742500                       # Time in different power states
system.mem_ctrls.dram.rank1.pwrStateTime::REF      1300000                       # Time in different power states
system.mem_ctrls.dram.rank1.pwrStateTime::SREF            0                       # Time in different power states
system.mem_ctrls.dram.rank1.pwrStateTime::PRE_PDN            0                       # Time in different power states
system.mem_ctrls.dram.rank1.pwrStateTime::ACT     43653000                       # Time in different power states
system.mem_ctrls.dram.rank1.pwrStateTime::ACT_PDN            0                       # Time in different power states
system.mem_ctrls.power_state.pwrStateResidencyTicks::UNDEFINED     46695500                       # Cumulative time (in ticks) in various power states
system.membus.trans_dist::ReadResp                525                       # Transaction distribution
system.membus.trans_dist::ReadExReq                79                       # Transaction distribution
system.membus.trans_dist::ReadExResp               79                       # Transaction distribution
system.membus.trans_dist::ReadSharedReq           525                       # Transaction distribution
system.membus.pkt_count_system.l2.mem_side_port::system.mem_ctrls.port         1208                       # Packet count per connected requestor and responder (bytes)
system.membus.pkt_count::total                   1208                       # Packet count per connected requestor and responder (bytes)
system.membus.pkt_size_system.l2.mem_side_port::system.mem_ctrls.port        38656                       # Cumulative packet size per connected requestor and responder (bytes)
system.membus.pkt_size::total                   38656                       # Cumulative packet size per connected requestor and responder (bytes)
system.membus.snoops                                0                       # Total snoops (count)
system.membus.snoopTraffic                          0                       # Total snoop traffic (bytes)
system.membus.snoop_fanout::samples               604                       # Request fanout histogram
system.membus.snoop_fanout::mean                    0                       # Request fanout histogram
system.membus.snoop_fanout::stdev                   0                       # Request fanout histogram
system.membus.snoop_fanout::underflows              0      0.00%      0.00% # Request fanout histogram
system.membus.snoop_fanout::0                     604    100.00%    100.00% # Request fanout histogram
system.membus.snoop_fanout::1                       0      0.00%    100.00% # Request fanout histogram
system.membus.snoop_fanout::overflows               0      0.00%    100.00% # Request fanout histogram
system.membus.snoop_fanout::min_value               0                       # Request fanout histogram
system.membus.snoop_fanout::max_value               0                       # Request fanout histogram
system.membus.snoop_fanout::total                 604                       # Request fanout histogram
system.membus.power_state.pwrStateResidencyTicks::UNDEFINED     46695500                       # Cumulative time (in ticks) in various power states
system.membus.reqLayer0.occupancy              702000                       # Layer occupancy (ticks)
system.membus.reqLayer0.utilization               1.5                       # Layer utilization (%)
system.membus.respLayer1.occupancy            3227000                       # Layer occupancy (ticks)
system.membus.respLayer1.utilization              6.9                       # Layer utilization (%)
system.tol2bus.trans_dist::ReadResp               598                       # Transaction distribution
system.tol2bus.trans_dist::WritebackDirty            3                       # Transaction distribution
system.tol2bus.trans_dist::WritebackClean          180                       # Transaction distribution
system.tol2bus.trans_dist::CleanEvict               5                       # Transaction distribution
system.tol2bus.trans_dist::ReadExReq               79                       # Transaction distribution
system.tol2bus.trans_dist::ReadExResp              79                       # Transaction distribution
system.tol2bus.trans_dist::ReadCleanReq           470                       # Transaction distribution
system.tol2bus.trans_dist::ReadSharedReq          128                       # Transaction distribution
system.tol2bus.pkt_count_system.cpu.icache.mem_side_port::system.l2.cpu_side_port         1120                       # Packet count per connected requestor and responder (bytes)
system.tol2bus.pkt_count_system.cpu.dcache.mem_side_port::system.l2.cpu_side_port          422                       # Packet count per connected requestor and responder (bytes)
system.tol2bus.pkt_count::total                  1542                       # Packet count per connected requestor and responder (bytes)
system.tol2bus.pkt_size_system.cpu.icache.mem_side_port::system.l2.cpu_side_port        41600                       # Cumulative packet size per connected requestor and responder (bytes)
system.tol2bus.pkt_size_system.cpu.dcache.mem_side_port::system.l2.cpu_side_port        13440                       # Cumulative packet size per connected requestor and responder (bytes)
system.tol2bus.pkt_size::total                  55040                       # Cumulative packet size per connected requestor and responder (bytes)
system.tol2bus.snoops                               0                       # Total snoops (count)
system.tol2bus.snoopTraffic                         0                       # Total snoop traffic (bytes)
system.tol2bus.snoop_fanout::samples              677                       # Request fanout histogram
system.tol2bus.snoop_fanout::mean            0.038405                       # Request fanout histogram
system.tol2bus.snoop_fanout::stdev           0.192313                       # Request fanout histogram
system.tol2bus.snoop_fanout::underflows             0      0.00%      0.00% # Request fanout histogram
system.tol2bus.snoop_fanout::0                    651     96.16%     96.16% # Request fanout histogram
system.tol2bus.snoop_fanout::1                     26      3.84%    100.00% # Request fanout histogram
system.tol2bus.snoop_fanout::2                      0      0.00%    100.00% # Request fanout histogram
system.tol2bus.snoop_fanout::overflows              0      0.00%    100.00% # Request fanout histogram
system.tol2bus.snoop_fanout::min_value              0                       # Request fanout histogram
system.tol2bus.snoop_fanout::max_value              1                       # Request fanout histogram
system.tol2bus.snoop_fanout::total                677                       # Request fanout histogram
system.tol2bus.power_state.pwrStateResidencyTicks::UNDEFINED     46695500                       # Cumulative time (in ticks) in various power states
system.tol2bus.reqLayer0.occupancy             615500                       # Layer occupancy (ticks)
system.tol2bus.reqLayer0.utilization              1.3                       # Layer utilization (%)
system.tol2bus.respLayer0.occupancy            705499                       # Layer occupancy (ticks)
system.tol2bus.respLayer0.utilization             1.5                       # Layer utilization (%)
system.tol2bus.respLayer1.occupancy            311498                       # Layer occupancy (ticks)
system.tol2bus.respLayer1.utilization             0.7                       # Layer utilization (%)
system.voltage_domain.voltage                       1                       # Voltage in Volts

---------- End Simulation Statistics   ----------
