
---------- Begin Simulation Statistics ----------
final_tick                                   63755000                       # Number of ticks from beginning of simulation (restored from checkpoints and never reset)
host_inst_rate                                 276008                       # Simulator instruction rate (inst/s)
host_mem_usage                                 644424                       # Number of bytes of host memory used
host_op_rate                                   323576                       # Simulator op (including micro ops) rate (op/s)
host_seconds                                     0.06                       # Real time elapsed on the host
host_tick_rate                             1049302659                       # Simulator tick rate (ticks/s)
sim_freq                                 1000000000000                       # Frequency of simulated ticks
sim_insts                                       16738                       # Number of instructions simulated
sim_ops                                         19655                       # Number of ops (including micro ops) simulated
sim_seconds                                  0.000064                       # Number of seconds simulated
sim_ticks                                    63755000                       # Number of ticks simulated
system.cpu.Branches                              3148                       # Number of branches fetched
system.cpu.committedInsts                       16738                       # Number of instructions committed
system.cpu.committedOps                         19655                       # Number of ops (including micro ops) committed
system.cpu.idle_fraction                     0.000000                       # Percentage of idle cycles
system.cpu.not_idle_fraction                 1.000000                       # Percentage of non-idle cycles
system.cpu.numCycles                           127510                       # number of cpu cycles simulated
system.cpu.numWorkItemsCompleted                    0                       # number of work items this cpu completed
system.cpu.numWorkItemsStarted                      0                       # number of work items this cpu started
system.cpu.num_busy_cycles               127509.998000                       # Number of busy cycles
system.cpu.num_cc_register_reads                68447                       # number of times the CC registers were read
system.cpu.num_cc_register_writes                9727                       # number of times the CC registers were written
system.cpu.num_conditional_control_insts         2163                       # number of instructions that are conditional controls
system.cpu.num_fp_alu_accesses                      0                       # Number of float alu accesses
system.cpu.num_fp_insts                             0                       # number of float instructions
system.cpu.num_fp_register_reads                    0                       # number of times the floating registers were read
system.cpu.num_fp_register_writes                   0                       # number of times the floating registers were written
system.cpu.num_func_calls                         678                       # number of times a function call or return occured
system.cpu.num_idle_cycles                   0.002000                       # Number of idle cycles
system.cpu.num_int_alu_accesses                 16820                       # Number of integer alu accesses
system.cpu.num_int_insts                        16820                       # number of integer instructions
system.cpu.num_int_register_reads               32183                       # number of times the integer registers were read
system.cpu.num_int_register_writes              11813                       # number of times the integer registers were written
system.cpu.num_load_insts                        3243                       # Number of load instructions
system.cpu.num_mem_refs                          6318                       # number of memory refs
system.cpu.num_store_insts                       3075                       # Number of store instructions
system.cpu.num_vec_alu_accesses                     0                       # Number of vector alu accesses
system.cpu.num_vec_insts                            0                       # number of vector instructions
system.cpu.num_vec_register_reads                2507                       # number of times the vector registers were read
system.cpu.num_vec_register_writes               1760                       # number of times the vector registers were written
system.cpu.op_class::No_OpClass                     0      0.00%      0.00% # Class of executed instruction
system.cpu.op_class::IntAlu                     12779     64.37%     64.37% # Class of executed instruction
system.cpu.op_class::IntMult                       90      0.45%     64.83% # Class of executed instruction
system.cpu.op_class::IntDiv                         0      0.00%     64.83% # Class of executed instruction
system.cpu.op_class::FloatAdd                       0      0.00%     64.83% # Class of executed instruction
system.cpu.op_class::FloatCmp                       0      0.00%     64.83% # Class of executed instruction
system.cpu.op_class::FloatCvt                       0      0.00%     64.83% # Class of executed instruction
system.cpu.op_class::FloatMult                      0      0.00%     64.83% # Class of executed instruction
system.cpu.op_class::FloatMultAcc                   0      0.00%     64.83% # Class of executed instruction
system.cpu.op_class::FloatDiv                       0      0.00%     64.83% # Class of executed instruction
system.cpu.op_class::FloatMisc                      0      0.00%     64.83% # Class of executed instruction
system.cpu.op_class::FloatSqrt                      0      0.00%     64.83% # Class of executed instruction
system.cpu.op_class::SimdAdd                        0      0.00%     64.83% # Class of executed instruction
system.cpu.op_class::SimdAddAcc                     0      0.00%     64.83% # Class of executed instruction
system.cpu.op_class::SimdAlu                        0      0.00%     64.83% # Class of executed instruction
system.cpu.op_class::SimdCmp                        0      0.00%     64.83% # Class of executed instruction
system.cpu.op_class::SimdCvt                        0      0.00%     64.83% # Class of executed instruction
system.cpu.op_class::SimdMisc                       0      0.00%     64.83% # Class of executed instruction
system.cpu.op_class::SimdMult                       0      0.00%     64.83% # Class of executed instruction
system.cpu.op_class::SimdMultAcc                    0      0.00%     64.83% # Class of executed instruction
system.cpu.op_class::SimdShift                      0      0.00%     64.83% # Class of executed instruction
system.cpu.op_class::SimdShiftAcc                   0      0.00%     64.83% # Class of executed instruction
system.cpu.op_class::SimdDiv                        0      0.00%     64.83% # Class of executed instruction
system.cpu.op_class::SimdSqrt                       0      0.00%     64.83% # Class of executed instruction
system.cpu.op_class::SimdFloatAdd                 178      0.90%     65.72% # Class of executed instruction
system.cpu.op_class::SimdFloatAlu                   0      0.00%     65.72% # Class of executed instruction
system.cpu.op_class::SimdFloatCmp                   0      0.00%     65.72% # Class of executed instruction
system.cpu.op_class::SimdFloatCvt                  29      0.15%     65.87% # Class of executed instruction
system.cpu.op_class::SimdFloatDiv                   0      0.00%     65.87% # Class of executed instruction
system.cpu.op_class::SimdFloatMisc                205      1.03%     66.90% # Class of executed instruction
system.cpu.op_class::SimdFloatMult                 89      0.45%     67.35% # Class of executed instruction
system.cpu.op_class::SimdFloatMultAcc             163      0.82%     68.17% # Class of executed instruction
system.cpu.op_class::SimdFloatSqrt                  0      0.00%     68.17% # Class of executed instruction
system.cpu.op_class::SimdReduceAdd                  0      0.00%     68.17% # Class of executed instruction
system.cpu.op_class::SimdReduceAlu                  0      0.00%     68.17% # Class of executed instruction
system.cpu.op_class::SimdReduceCmp                  0      0.00%     68.17% # Class of executed instruction
system.cpu.op_class::SimdFloatReduceAdd             0      0.00%     68.17% # Class of executed instruction
system.cpu.op_class::SimdFloatReduceCmp             0      0.00%     68.17% # Class of executed instruction
system.cpu.op_class::SimdAes                        0      0.00%     68.17% # Class of executed instruction
system.cpu.op_class::SimdAesMix                     0      0.00%     68.17% # Class of executed instruction
system.cpu.op_class::SimdSha1Hash                   0      0.00%     68.17% # Class of executed instruction
system.cpu.op_class::SimdSha1Hash2                  0      0.00%     68.17% # Class of executed instruction
system.cpu.op_class::SimdSha256Hash                 0      0.00%     68.17% # Class of executed instruction
system.cpu.op_class::SimdSha256Hash2                0      0.00%     68.17% # Class of executed instruction
system.cpu.op_class::SimdShaSigma2                  0      0.00%     68.17% # Class of executed instruction
system.cpu.op_class::SimdShaSigma3                  0      0.00%     68.17% # Class of executed instruction
system.cpu.op_class::SimdPredAlu                    0      0.00%     68.17% # Class of executed instruction
system.cpu.op_class::MemRead                     3243     16.34%     84.51% # Class of executed instruction
system.cpu.op_class::MemWrite                    3075     15.49%    100.00% # Class of executed instruction
system.cpu.op_class::FloatMemRead                   0      0.00%    100.00% # Class of executed instruction
system.cpu.op_class::FloatMemWrite                  0      0.00%    100.00% # Class of executed instruction
system.cpu.op_class::IprAccess                      0      0.00%    100.00% # Class of executed instruction
system.cpu.op_class::InstPrefetch                   0      0.00%    100.00% # Class of executed instruction
system.cpu.op_class::total                      19851                       # Class of executed instruction
system.cpu.workload.numSyscalls                    20                       # Number of system calls
system.membus.snoop_filter.hit_multi_requests            1                       # Number of requests hitting in the snoop filter with multiple (>1) holders of the requested data.
system.membus.snoop_filter.hit_multi_snoops            0                       # Number of snoops hitting in the snoop filter with multiple (>1) holders of the requested data.
system.membus.snoop_filter.hit_single_requests           74                       # Number of requests hitting in the snoop filter with a single holder of the requested data.
system.membus.snoop_filter.hit_single_snoops            0                       # Number of snoops hitting in the snoop filter with a single holder of the requested data.
system.membus.snoop_filter.tot_requests           568                       # Total number of requests made to the snoop filter.
system.membus.snoop_filter.tot_snoops               0                       # Total number of snoops made to the snoop filter.
system.clk_domain.clock                          1000                       # Clock period in ticks
system.cpu.dcache.demand_hits::.cpu.data         5895                       # number of demand (read+write) hits
system.cpu.dcache.demand_hits::total             5895                       # number of demand (read+write) hits
system.cpu.dcache.overall_hits::.cpu.data         5916                       # number of overall hits
system.cpu.dcache.overall_hits::total            5916                       # number of overall hits
system.cpu.dcache.demand_misses::.cpu.data          179                       # number of demand (read+write) misses
system.cpu.dcache.demand_misses::total            179                       # number of demand (read+write) misses
system.cpu.dcache.overall_misses::.cpu.data          187                       # number of overall misses
system.cpu.dcache.overall_misses::total           187                       # number of overall misses
system.cpu.dcache.demand_miss_latency::.cpu.data     13915000                       # number of demand (read+write) miss cycles
system.cpu.dcache.demand_miss_latency::total     13915000                       # number of demand (read+write) miss cycles
system.cpu.dcache.overall_miss_latency::.cpu.data     13915000                       # number of overall miss cycles
system.cpu.dcache.overall_miss_latency::total     13915000                       # number of overall miss cycles
system.cpu.dcache.demand_accesses::.cpu.data         6074                       # number of demand (read+write) accesses
system.cpu.dcache.demand_accesses::total         6074                       # number of demand (read+write) accesses
system.cpu.dcache.overall_accesses::.cpu.data         6103                       # number of overall (read+write) accesses
system.cpu.dcache.overall_accesses::total         6103                       # number of overall (read+write) accesses
system.cpu.dcache.demand_miss_rate::.cpu.data     0.029470                       # miss rate for demand accesses
system.cpu.dcache.demand_miss_rate::total     0.029470                       # miss rate for demand accesses
system.cpu.dcache.overall_miss_rate::.cpu.data     0.030641                       # miss rate for overall accesses
system.cpu.dcache.overall_miss_rate::total     0.030641                       # miss rate for overall accesses
system.cpu.dcache.demand_avg_miss_latency::.cpu.data 77737.430168                       # average overall miss latency
system.cpu.dcache.demand_avg_miss_latency::total 77737.430168                       # average overall miss latency
system.cpu.dcache.overall_avg_miss_latency::.cpu.data 74411.764706                       # average overall miss latency
system.cpu.dcache.overall_avg_miss_latency::total 74411.764706                       # average overall miss latency
system.cpu.dcache.blocked_cycles::no_mshrs            0                       # number of cycles access was blocked
system.cpu.dcache.blocked_cycles::no_targets            0                       # number of cycles access was blocked
system.cpu.dcache.blocked::no_mshrs                 0                       # number of cycles access was blocked
system.cpu.dcache.blocked::no_targets               0                       # number of cycles access was blocked
system.cpu.dcache.avg_blocked_cycles::no_mshrs          nan                       # average number of cycles each access was blocked
system.cpu.dcache.avg_blocked_cycles::no_targets          nan                       # average number of cycles each access was blocked
system.cpu.dcache.demand_mshr_hits::.cpu.data            1                       # number of demand (read+write) MSHR hits
system.cpu.dcache.demand_mshr_hits::total            1                       # number of demand (read+write) MSHR hits
system.cpu.dcache.overall_mshr_hits::.cpu.data            1                       # number of overall MSHR hits
system.cpu.dcache.overall_mshr_hits::total            1                       # number of overall MSHR hits
system.cpu.dcache.demand_mshr_misses::.cpu.data          178                       # number of demand (read+write) MSHR misses
system.cpu.dcache.demand_mshr_misses::total          178                       # number of demand (read+write) MSHR misses
system.cpu.dcache.overall_mshr_misses::.cpu.data          184                       # number of overall MSHR misses
system.cpu.dcache.overall_mshr_misses::total          184                       # number of overall MSHR misses
system.cpu.dcache.demand_mshr_miss_latency::.cpu.data     13667000                       # number of demand (read+write) MSHR miss cycles
system.cpu.dcache.demand_mshr_miss_latency::total     13667000                       # number of demand (read+write) MSHR miss cycles
system.cpu.dcache.overall_mshr_miss_latency::.cpu.data     14101000                       # number of overall MSHR miss cycles
system.cpu.dcache.overall_mshr_miss_latency::total     14101000                       # number of overall MSHR miss cycles
system.cpu.dcache.demand_mshr_miss_rate::.cpu.data     0.029305                       # mshr miss rate for demand accesses
system.cpu.dcache.demand_mshr_miss_rate::total     0.029305                       # mshr miss rate for demand accesses
system.cpu.dcache.overall_mshr_miss_rate::.cpu.data     0.030149                       # mshr miss rate for overall accesses
system.cpu.dcache.overall_mshr_miss_rate::total     0.030149                       # mshr miss rate for overall accesses
system.cpu.dcache.demand_avg_mshr_miss_latency::.cpu.data 76780.898876                       # average overall mshr miss latency
system.cpu.dcache.demand_avg_mshr_miss_latency::total 76780.898876                       # average overall mshr miss latency
system.cpu.dcache.overall_avg_mshr_miss_latency::.cpu.data 76635.869565                       # average overall mshr miss latency
system.cpu.dcache.overall_avg_mshr_miss_latency::total 76635.869565                       # average overall mshr miss latency
system.cpu.dcache.replacements                      0                       # number of replacements
system.cpu.dcache.ReadReq_hits::.cpu.data         3009                       # number of ReadReq hits
system.cpu.dcache.ReadReq_hits::total            3009                       # number of ReadReq hits
system.cpu.dcache.ReadReq_misses::.cpu.data          108                       # number of ReadReq misses
system.cpu.dcache.ReadReq_misses::total           108                       # number of ReadReq misses
system.cpu.dcache.ReadReq_miss_latency::.cpu.data      8247500                       # number of ReadReq miss cycles
system.cpu.dcache.ReadReq_miss_latency::total      8247500                       # number of ReadReq miss cycles
system.cpu.dcache.ReadReq_accesses::.cpu.data         3117                       # number of ReadReq accesses(hits+misses)
system.cpu.dcache.ReadReq_accesses::total         3117                       # number of ReadReq accesses(hits+misses)
system.cpu.dcache.ReadReq_miss_rate::.cpu.data     0.034649                       # miss rate for ReadReq accesses
system.cpu.dcache.ReadReq_miss_rate::total     0.034649                       # miss rate for ReadReq accesses
system.cpu.dcache.ReadReq_avg_miss_latency::.cpu.data 76365.740741                       # average ReadReq miss latency
system.cpu.dcache.ReadReq_avg_miss_latency::total 76365.740741                       # average ReadReq miss latency
system.cpu.dcache.ReadReq_mshr_hits::.cpu.data            1                       # number of ReadReq MSHR hits
system.cpu.dcache.ReadReq_mshr_hits::total            1                       # number of ReadReq MSHR hits
system.cpu.dcache.ReadReq_mshr_misses::.cpu.data          107                       # number of ReadReq MSHR misses
system.cpu.dcache.ReadReq_mshr_misses::total          107                       # number of ReadReq MSHR misses
system.cpu.dcache.ReadReq_mshr_miss_latency::.cpu.data      8070500                       # number of ReadReq MSHR miss cycles
system.cpu.dcache.ReadReq_mshr_miss_latency::total      8070500                       # number of ReadReq MSHR miss cycles
system.cpu.dcache.ReadReq_mshr_miss_rate::.cpu.data     0.034328                       # mshr miss rate for ReadReq accesses
system.cpu.dcache.ReadReq_mshr_miss_rate::total     0.034328                       # mshr miss rate for ReadReq accesses
system.cpu.dcache.ReadReq_avg_mshr_miss_latency::.cpu.data 75425.233645                       # average ReadReq mshr miss latency
system.cpu.dcache.ReadReq_avg_mshr_miss_latency::total 75425.233645                       # average ReadReq mshr miss latency
system.cpu.dcache.WriteReq_hits::.cpu.data         2886                       # number of WriteReq hits
system.cpu.dcache.WriteReq_hits::total           2886                       # number of WriteReq hits
system.cpu.dcache.WriteReq_misses::.cpu.data           71                       # number of WriteReq misses
system.cpu.dcache.WriteReq_misses::total           71                       # number of WriteReq misses
system.cpu.dcache.WriteReq_miss_latency::.cpu.data      5667500                       # number of WriteReq miss cycles
system.cpu.dcache.WriteReq_miss_latency::total      5667500                       # number of WriteReq miss cycles
system.cpu.dcache.WriteReq_accesses::.cpu.data         2957                       # number of WriteReq accesses(hits+misses)
system.cpu.dcache.WriteReq_accesses::total         2957                       # number of WriteReq accesses(hits+misses)
system.cpu.dcache.WriteReq_miss_rate::.cpu.data     0.024011                       # miss rate for WriteReq accesses
system.cpu.dcache.WriteReq_miss_rate::total     0.024011                       # miss rate for WriteReq accesses
system.cpu.dcache.WriteReq_avg_miss_latency::.cpu.data 79823.943662                       # average WriteReq miss latency
system.cpu.dcache.WriteReq_avg_miss_latency::total 79823.943662                       # average WriteReq miss latency
system.cpu.dcache.WriteReq_mshr_misses::.cpu.data           71                       # number of WriteReq MSHR misses
system.cpu.dcache.WriteReq_mshr_misses::total           71                       # number of WriteReq MSHR misses
system.cpu.dcache.WriteReq_mshr_miss_latency::.cpu.data      5596500                       # number of WriteReq MSHR miss cycles
system.cpu.dcache.WriteReq_mshr_miss_latency::total      5596500                       # number of WriteReq MSHR miss cycles
system.cpu.dcache.WriteReq_mshr_miss_rate::.cpu.data     0.024011                       # mshr miss rate for WriteReq accesses
system.cpu.dcache.WriteReq_mshr_miss_rate::total     0.024011                       # mshr miss rate for WriteReq accesses
system.cpu.dcache.WriteReq_avg_mshr_miss_latency::.cpu.data 78823.943662                       # average WriteReq mshr miss latency
system.cpu.dcache.WriteReq_avg_mshr_miss_latency::total 78823.943662                       # average WriteReq mshr miss latency
system.cpu.dcache.SoftPFReq_hits::.cpu.data           21                       # number of SoftPFReq hits
system.cpu.dcache.SoftPFReq_hits::total            21                       # number of SoftPFReq hits
system.cpu.dcache.SoftPFReq_misses::.cpu.data            8                       # number of SoftPFReq misses
system.cpu.dcache.SoftPFReq_misses::total            8                       # number of SoftPFReq misses
system.cpu.dcache.SoftPFReq_accesses::.cpu.data           29                       # number of SoftPFReq accesses(hits+misses)
system.cpu.dcache.SoftPFReq_accesses::total           29                       # number of SoftPFReq accesses(hits+misses)
system.cpu.dcache.SoftPFReq_miss_rate::.cpu.data     0.275862                       # miss rate for SoftPFReq accesses
system.cpu.dcache.SoftPFReq_miss_rate::total     0.275862                       # miss rate for SoftPFReq accesses
system.cpu.dcache.SoftPFReq_mshr_misses::.cpu.data            6                       # number of SoftPFReq MSHR misses
system.cpu.dcache.SoftPFReq_mshr_misses::total            6                       # number of SoftPFReq MSHR misses
system.cpu.dcache.SoftPFReq_mshr_miss_latency::.cpu.data       434000                       # number of SoftPFReq MSHR miss cycles
system.cpu.dcache.SoftPFReq_mshr_miss_latency::total       434000                       # number of SoftPFReq MSHR miss cycles
system.cpu.dcache.SoftPFReq_mshr_miss_rate::.cpu.data     0.206897                       # mshr miss rate for SoftPFReq accesses
system.cpu.dcache.SoftPFReq_mshr_miss_rate::total     0.206897                       # mshr miss rate for SoftPFReq accesses
system.cpu.dcache.SoftPFReq_avg_mshr_miss_latency::.cpu.data 72333.333333                       # average SoftPFReq mshr miss latency
system.cpu.dcache.SoftPFReq_avg_mshr_miss_latency::total 72333.333333                       # average SoftPFReq mshr miss latency
system.cpu.dcache.LoadLockedReq_hits::.cpu.data           36                       # number of LoadLockedReq hits
system.cpu.dcache.LoadLockedReq_hits::total           36                       # number of LoadLockedReq hits
system.cpu.dcache.LoadLockedReq_accesses::.cpu.data           36                       # number of LoadLockedReq accesses(hits+misses)
system.cpu.dcache.LoadLockedReq_accesses::total           36                       # number of LoadLockedReq accesses(hits+misses)
system.cpu.dcache.StoreCondReq_hits::.cpu.data           36                       # number of StoreCondReq hits
system.cpu.dcache.StoreCondReq_hits::total           36                       # number of StoreCondReq hits
system.cpu.dcache.StoreCondReq_accesses::.cpu.data           36                       # number of StoreCondReq accesses(hits+misses)
system.cpu.dcache.StoreCondReq_accesses::total           36                       # number of StoreCondReq accesses(hits+misses)
system.cpu.dcache.power_state.pwrStateResidencyTicks::UNDEFINED     63755000                       # Cumulative time (in ticks) in various power states
system.cpu.dcache.tags.tagsinuse           114.542813                       # Cycle average of tags in use
system.cpu.dcache.tags.total_refs                6172                       # Total number of references to valid blocks.
system.cpu.dcache.tags.sampled_refs               184                       # Sample count of references to valid blocks.
system.cpu.dcache.tags.avg_refs             33.543478                       # Average number of references to valid blocks.
system.cpu.dcache.tags.warmup_cycle            173000                       # Cycle when the warmup percentage was hit.
system.cpu.dcache.tags.occ_blocks::.cpu.data   114.542813                       # Average occupied blocks per requestor
system.cpu.dcache.tags.occ_percent::.cpu.data     0.111858                       # Average percentage of cache occupancy
system.cpu.dcache.tags.occ_percent::total     0.111858                       # Average percentage of cache occupancy
system.cpu.dcache.tags.occ_task_id_blocks::1024          184                       # Occupied blocks per task id
system.cpu.dcache.tags.age_task_id_blocks_1024::0           17                       # Occupied blocks per task id
system.cpu.dcache.tags.age_task_id_blocks_1024::1          167                       # Occupied blocks per task id
system.cpu.dcache.tags.occ_task_id_percent::1024     0.179688                       # Percentage of cache occupancy per task id
system.cpu.dcache.tags.tag_accesses             12534                       # Number of tag accesses
system.cpu.dcache.tags.data_accesses            12534                       # Number of data accesses
system.cpu.dcache.tags.power_state.pwrStateResidencyTicks::UNDEFINED     63755000                       # Cumulative time (in ticks) in various power states
system.cpu.dtb.instHits                             0                       # ITB inst hits
system.cpu.dtb.instMisses                           0                       # ITB inst misses
system.cpu.dtb.readHits                             0                       # DTB read hits
system.cpu.dtb.readMisses                           0                       # DTB read misses
system.cpu.dtb.writeHits                            0                       # DTB write hits
system.cpu.dtb.writeMisses                          0                       # DTB write misses
system.cpu.dtb.inserts                              0                       # Number of times an entry is inserted into the TLB
system.cpu.dtb.flushTlb                             0                       # Number of times complete TLB was flushed
system.cpu.dtb.flushTlbMva                          0                       # Number of times TLB was flushed by MVA
system.cpu.dtb.flushTlbMvaAsid                      0                       # Number of times TLB was flushed by MVA & ASID
system.cpu.dtb.flushTlbAsid                         0                       # Number of times TLB was flushed by ASID
system.cpu.dtb.flushedEntries                       0                       # Number of entries that have been flushed from TLB
system.cpu.dtb.alignFaults                          0                       # Number of TLB faults due to alignment restrictions
system.cpu.dtb.prefetchFaults                       0                       # Number of TLB faults due to prefetch
system.cpu.dtb.domainFaults                         0                       # Number of TLB faults due to domain restrictions
system.cpu.dtb.permsFaults                          0                       # Number of TLB faults due to permissions restrictions
system.cpu.dtb.readAccesses                         0                       # DTB read accesses
system.cpu.dtb.writeAccesses                        0                       # DTB write accesses
system.cpu.dtb.instAccesses                         0                       # ITB inst accesses
system.cpu.dtb.hits                                 0                       # Total TLB (inst and data) hits
system.cpu.dtb.misses                               0                       # Total TLB (inst and data) misses
system.cpu.dtb.accesses                             0                       # Total TLB (inst and data) accesses
system.cpu.dtb.stage2_mmu.stage2_tlb.instHits            0                       # ITB inst hits
system.cpu.dtb.stage2_mmu.stage2_tlb.instMisses            0                       # ITB inst misses
system.cpu.dtb.stage2_mmu.stage2_tlb.readHits            0                       # DTB read hits
system.cpu.dtb.stage2_mmu.stage2_tlb.readMisses            0                       # DTB read misses
system.cpu.dtb.stage2_mmu.stage2_tlb.writeHits            0                       # DTB write hits
system.cpu.dtb.stage2_mmu.stage2_tlb.writeMisses            0                       # DTB write misses
system.cpu.dtb.stage2_mmu.stage2_tlb.inserts            0                       # Number of times an entry is inserted into the TLB
system.cpu.dtb.stage2_mmu.stage2_tlb.flushTlb            0                       # Number of times complete TLB was flushed
system.cpu.dtb.stage2_mmu.stage2_tlb.flushTlbMva            0                       # Number of times TLB was flushed by MVA
system.cpu.dtb.stage2_mmu.stage2_tlb.flushTlbMvaAsid            0                       # Number of times TLB was flushed by MVA & ASID
system.cpu.dtb.stage2_mmu.stage2_tlb.flushTlbAsid            0                       # Number of times TLB was flushed by ASID
system.cpu.dtb.stage2_mmu.stage2_tlb.flushedEntries            0                       # Number of entries that have been flushed from TLB
system.cpu.dtb.stage2_mmu.stage2_tlb.alignFaults            0                       # Number of TLB faults due to alignment restrictions
system.cpu.dtb.stage2_mmu.stage2_tlb.prefetchFaults            0                       # Number of TLB faults due to prefetch
system.cpu.dtb.stage2_mmu.stage2_tlb.domainFaults            0                       # Number of TLB faults due to domain restrictions
system.cpu.dtb.stage2_mmu.stage2_tlb.permsFaults            0                       # Number of TLB faults due to permissions restrictions
system.cpu.dtb.stage2_mmu.stage2_tlb.readAccesses            0                       # DTB read accesses
system.cpu.dtb.stage2_mmu.stage2_tlb.writeAccesses            0                       # DTB write accesses
system.cpu.dtb.stage2_mmu.stage2_tlb.instAccesses            0                       # ITB inst accesses
system.cpu.dtb.stage2_mmu.stage2_tlb.hits            0                       # Total TLB (inst and data) hits
system.cpu.dtb.stage2_mmu.stage2_tlb.misses            0                       # Total TLB (inst and data) misses
system.cpu.dtb.stage2_mmu.stage2_tlb.accesses            0                       # Total TLB (inst and data) accesses
system.cpu.dtb.stage2_mmu.stage2_tlb.walker.walks            0                       # Table walker walks requested
system.cpu.dtb.stage2_mmu.stage2_tlb.walker.requestOrigin_Requested::Data            0                       # Table walker requests started/completed, data/inst
system.cpu.dtb.stage2_mmu.stage2_tlb.walker.requestOrigin_Requested::Inst            0                       # Table walker requests started/completed, data/inst
system.cpu.dtb.stage2_mmu.stage2_tlb.walker.requestOrigin_Requested::total            0                       # Table walker requests started/completed, data/inst
system.cpu.dtb.stage2_mmu.stage2_tlb.walker.requestOrigin_Completed::Data            0                       # Table walker requests started/completed, data/inst
system.cpu.dtb.stage2_mmu.stage2_tlb.walker.requestOrigin_Completed::Inst            0                       # Table walker requests started/completed, data/inst
system.cpu.dtb.stage2_mmu.stage2_tlb.walker.requestOrigin_Completed::total            0                       # Table walker requests started/completed, data/inst
system.cpu.dtb.stage2_mmu.stage2_tlb.walker.requestOrigin::total            0                       # Table walker requests started/completed, data/inst
system.cpu.dtb.stage2_mmu.stage2_tlb.walker.power_state.pwrStateResidencyTicks::UNDEFINED     63755000                       # Cumulative time (in ticks) in various power states
system.cpu.dtb.walker.walks                         0                       # Table walker walks requested
system.cpu.dtb.walker.requestOrigin_Requested::Data            0                       # Table walker requests started/completed, data/inst
system.cpu.dtb.walker.requestOrigin_Requested::Inst            0                       # Table walker requests started/completed, data/inst
system.cpu.dtb.walker.requestOrigin_Requested::total            0                       # Table walker requests started/completed, data/inst
system.cpu.dtb.walker.requestOrigin_Completed::Data            0                       # Table walker requests started/completed, data/inst
system.cpu.dtb.walker.requestOrigin_Completed::Inst            0                       # Table walker requests started/completed, data/inst
system.cpu.dtb.walker.requestOrigin_Completed::total            0                       # Table walker requests started/completed, data/inst
system.cpu.dtb.walker.requestOrigin::total            0                       # Table walker requests started/completed, data/inst
system.cpu.dtb.walker.power_state.pwrStateResidencyTicks::UNDEFINED     63755000                       # Cumulative time (in ticks) in various power states
system.cpu.icache.demand_hits::.cpu.inst        19522                       # number of demand (read+write) hits
system.cpu.icache.demand_hits::total            19522                       # number of demand (read+write) hits
system.cpu.icache.overall_hits::.cpu.inst        19522                       # number of overall hits
system.cpu.icache.overall_hits::total           19522                       # number of overall hits
system.cpu.icache.demand_misses::.cpu.inst          324                       # number of demand (read+write) misses
system.cpu.icache.demand_misses::total            324                       # number of demand (read+write) misses
system.cpu.icache.overall_misses::.cpu.inst          324                       # number of overall misses
system.cpu.icache.overall_misses::total           324                       # number of overall misses
system.cpu.icache.demand_miss_latency::.cpu.inst     23604000                       # number of demand (read+write) miss cycles
system.cpu.icache.demand_miss_latency::total     23604000                       # number of demand (read+write) miss cycles
system.cpu.icache.overall_miss_latency::.cpu.inst     23604000                       # number of overall miss cycles
system.cpu.icache.overall_miss_latency::total     23604000                       # number of overall miss cycles
system.cpu.icache.demand_accesses::.cpu.inst        19846                       # number of demand (read+write) accesses
system.cpu.icache.demand_accesses::total        19846                       # number of demand (read+write) accesses
system.cpu.icache.overall_accesses::.cpu.inst        19846                       # number of overall (read+write) accesses
system.cpu.icache.overall_accesses::total        19846                       # number of overall (read+write) accesses
system.cpu.icache.demand_miss_rate::.cpu.inst     0.016326                       # miss rate for demand accesses
system.cpu.icache.demand_miss_rate::total     0.016326                       # miss rate for demand accesses
system.cpu.icache.overall_miss_rate::.cpu.inst     0.016326                       # miss rate for overall accesses
system.cpu.icache.overall_miss_rate::total     0.016326                       # miss rate for overall accesses
system.cpu.icache.demand_avg_miss_latency::.cpu.inst 72851.851852                       # average overall miss latency
system.cpu.icache.demand_avg_miss_latency::total 72851.851852                       # average overall miss latency
system.cpu.icache.overall_avg_miss_latency::.cpu.inst 72851.851852                       # average overall miss latency
system.cpu.icache.overall_avg_miss_latency::total 72851.851852                       # average overall miss latency
system.cpu.icache.blocked_cycles::no_mshrs            0                       # number of cycles access was blocked
system.cpu.icache.blocked_cycles::no_targets            0                       # number of cycles access was blocked
system.cpu.icache.blocked::no_mshrs                 0                       # number of cycles access was blocked
system.cpu.icache.blocked::no_targets               0                       # number of cycles access was blocked
system.cpu.icache.avg_blocked_cycles::no_mshrs          nan                       # average number of cycles each access was blocked
system.cpu.icache.avg_blocked_cycles::no_targets          nan                       # average number of cycles each access was blocked
system.cpu.icache.writebacks::.writebacks           60                       # number of writebacks
system.cpu.icache.writebacks::total                60                       # number of writebacks
system.cpu.icache.demand_mshr_misses::.cpu.inst          324                       # number of demand (read+write) MSHR misses
system.cpu.icache.demand_mshr_misses::total          324                       # number of demand (read+write) MSHR misses
system.cpu.icache.overall_mshr_misses::.cpu.inst          324                       # number of overall MSHR misses
system.cpu.icache.overall_mshr_misses::total          324                       # number of overall MSHR misses
system.cpu.icache.demand_mshr_miss_latency::.cpu.inst     23280000                       # number of demand (read+write) MSHR miss cycles
system.cpu.icache.demand_mshr_miss_latency::total     23280000                       # number of demand (read+write) MSHR miss cycles
system.cpu.icache.overall_mshr_miss_latency::.cpu.inst     23280000                       # number of overall MSHR miss cycles
system.cpu.icache.overall_mshr_miss_latency::total     23280000                       # number of overall MSHR miss cycles
system.cpu.icache.demand_mshr_miss_rate::.cpu.inst     0.016326                       # mshr miss rate for demand accesses
system.cpu.icache.demand_mshr_miss_rate::total     0.016326                       # mshr miss rate for demand accesses
system.cpu.icache.overall_mshr_miss_rate::.cpu.inst     0.016326                       # mshr miss rate for overall accesses
system.cpu.icache.overall_mshr_miss_rate::total     0.016326                       # mshr miss rate for overall accesses
system.cpu.icache.demand_avg_mshr_miss_latency::.cpu.inst 71851.851852                       # average overall mshr miss latency
system.cpu.icache.demand_avg_mshr_miss_latency::total 71851.851852                       # average overall mshr miss latency
system.cpu.icache.overall_avg_mshr_miss_latency::.cpu.inst 71851.851852                       # average overall mshr miss latency
system.cpu.icache.overall_avg_mshr_miss_latency::total 71851.851852                       # average overall mshr miss latency
system.cpu.icache.replacements                     60                       # number of replacements
system.cpu.icache.ReadReq_hits::.cpu.inst        19522                       # number of ReadReq hits
system.cpu.icache.ReadReq_hits::total           19522                       # number of ReadReq hits
system.cpu.icache.ReadReq_misses::.cpu.inst          324                       # number of ReadReq misses
system.cpu.icache.ReadReq_misses::total           324                       # number of ReadReq misses
system.cpu.icache.ReadReq_miss_latency::.cpu.inst     23604000                       # number of ReadReq miss cycles
system.cpu.icache.ReadReq_miss_latency::total     23604000                       # number of ReadReq miss cycles
system.cpu.icache.ReadReq_accesses::.cpu.inst        19846                       # number of ReadReq accesses(hits+misses)
system.cpu.icache.ReadReq_accesses::total        19846                       # number of ReadReq accesses(hits+misses)
system.cpu.icache.ReadReq_miss_rate::.cpu.inst     0.016326                       # miss rate for ReadReq accesses
system.cpu.icache.ReadReq_miss_rate::total     0.016326                       # miss rate for ReadReq accesses
system.cpu.icache.ReadReq_avg_miss_latency::.cpu.inst 72851.851852                       # average ReadReq miss latency
system.cpu.icache.ReadReq_avg_miss_latency::total 72851.851852                       # average ReadReq miss latency
system.cpu.icache.ReadReq_mshr_misses::.cpu.inst          324                       # number of ReadReq MSHR misses
system.cpu.icache.ReadReq_mshr_misses::total          324                       # number of ReadReq MSHR misses
system.cpu.icache.ReadReq_mshr_miss_latency::.cpu.inst     23280000                       # number of ReadReq MSHR miss cycles
system.cpu.icache.ReadReq_mshr_miss_latency::total     23280000                       # number of ReadReq MSHR miss cycles
system.cpu.icache.ReadReq_mshr_miss_rate::.cpu.inst     0.016326                       # mshr miss rate for ReadReq accesses
system.cpu.icache.ReadReq_mshr_miss_rate::total     0.016326                       # mshr miss rate for ReadReq accesses
system.cpu.icache.ReadReq_avg_mshr_miss_latency::.cpu.inst 71851.851852                       # average ReadReq mshr miss latency
system.cpu.icache.ReadReq_avg_mshr_miss_latency::total 71851.851852                       # average ReadReq mshr miss latency
system.cpu.icache.power_state.pwrStateResidencyTicks::UNDEFINED     63755000                       # Cumulative time (in ticks) in various power states
system.cpu.icache.tags.tagsinuse           159.070051                       # Cycle average of tags in use
system.cpu.icache.tags.total_refs               19846                       # Total number of references to valid blocks.
system.cpu.icache.tags.sampled_refs               324                       # Sample count of references to valid blocks.
system.cpu.icache.tags.avg_refs             61.253086                       # Average number of references to valid blocks.
system.cpu.icache.tags.warmup_cycle             90000                       # Cycle when the warmup percentage was hit.
system.cpu.icache.tags.occ_blocks::.cpu.inst   159.070051                       # Average occupied blocks per requestor
system.cpu.icache.tags.occ_percent::.cpu.inst     0.310684                       # Average percentage of cache occupancy
system.cpu.icache.tags.occ_percent::total     0.310684                       # Average percentage of cache occupancy
system.cpu.icache.tags.occ_task_id_blocks::1024          264                       # Occupied blocks per task id
system.cpu.icache.tags.age_task_id_blocks_1024::0           35                       # Occupied blocks per task id
system.cpu.icache.tags.age_task_id_blocks_1024::1          229                       # Occupied blocks per task id
system.cpu.icache.tags.occ_task_id_percent::1024     0.515625                       # Percentage of cache occupancy per task id
system.cpu.icache.tags.tag_accesses             40016                       # Number of tag accesses
system.cpu.icache.tags.data_accesses            40016                       # Number of data accesses
system.cpu.icache.tags.power_state.pwrStateResidencyTicks::UNDEFINED     63755000                       # Cumulative time (in ticks) in various power states
system.cpu.itb.instHits                             0                       # ITB inst hits
system.cpu.itb.instMisses                           0                       # ITB inst misses
system.cpu.itb.readHits                             0                       # DTB read hits
system.cpu.itb.readMisses                           0                       # DTB read misses
system.cpu.itb.writeHits                            0                       # DTB write hits
system.cpu.itb.writeMisses                          0                       # DTB write misses
system.cpu.itb.inserts                              0                       # Number of times an entry is inserted into the TLB
system.cpu.itb.flushTlb                             0                       # Number of times complete TLB was flushed
system.cpu.itb.flushTlbMva                          0                       # Number of times TLB was flushed by MVA
system.cpu.itb.flushTlbMvaAsid                      0                       # Number of times TLB was flushed by MVA & ASID
system.cpu.itb.flushTlbAsid                         0                       # Number of times TLB was flushed by ASID
system.cpu.itb.flushedEntries                       0                       # Number of entries that have been flushed from TLB
system.cpu.itb.alignFaults                          0                       # Number of TLB faults due to alignment restrictions
system.cpu.itb.prefetchFaults                       0                       # Number of TLB faults due to prefetch
system.cpu.itb.domainFaults                         0                       # Number of TLB faults due to domain restrictions
system.cpu.itb.permsFaults                          0                       # Number of TLB faults due to permissions restrictions
system.cpu.itb.readAccesses                         0                       # DTB read accesses
system.cpu.itb.writeAccesses                        0                       # DTB write accesses
system.cpu.itb.instAccesses                         0                       # ITB inst accesses
system.cpu.itb.hits                                 0                       # Total TLB (inst and data) hits
system.cpu.itb.misses                               0                       # Total TLB (inst and data) misses
system.cpu.itb.accesses                             0                       # Total TLB (inst and data) accesses
system.cpu.itb.stage2_mmu.stage2_tlb.instHits            0                       # ITB inst hits
system.cpu.itb.stage2_mmu.stage2_tlb.instMisses            0                       # ITB inst misses
system.cpu.itb.stage2_mmu.stage2_tlb.readHits            0                       # DTB read hits
system.cpu.itb.stage2_mmu.stage2_tlb.readMisses            0                       # DTB read misses
system.cpu.itb.stage2_mmu.stage2_tlb.writeHits            0                       # DTB write hits
system.cpu.itb.stage2_mmu.stage2_tlb.writeMisses            0                       # DTB write misses
system.cpu.itb.stage2_mmu.stage2_tlb.inserts            0                       # Number of times an entry is inserted into the TLB
system.cpu.itb.stage2_mmu.stage2_tlb.flushTlb            0                       # Number of times complete TLB was flushed
system.cpu.itb.stage2_mmu.stage2_tlb.flushTlbMva            0                       # Number of times TLB was flushed by MVA
system.cpu.itb.stage2_mmu.stage2_tlb.flushTlbMvaAsid            0                       # Number of times TLB was flushed by MVA & ASID
system.cpu.itb.stage2_mmu.stage2_tlb.flushTlbAsid            0                       # Number of times TLB was flushed by ASID
system.cpu.itb.stage2_mmu.stage2_tlb.flushedEntries            0                       # Number of entries that have been flushed from TLB
system.cpu.itb.stage2_mmu.stage2_tlb.alignFaults            0                       # Number of TLB faults due to alignment restrictions
system.cpu.itb.stage2_mmu.stage2_tlb.prefetchFaults            0                       # Number of TLB faults due to prefetch
system.cpu.itb.stage2_mmu.stage2_tlb.domainFaults            0                       # Number of TLB faults due to domain restrictions
system.cpu.itb.stage2_mmu.stage2_tlb.permsFaults            0                       # Number of TLB faults due to permissions restrictions
system.cpu.itb.stage2_mmu.stage2_tlb.readAccesses            0                       # DTB read accesses
system.cpu.itb.stage2_mmu.stage2_tlb.writeAccesses            0                       # DTB write accesses
system.cpu.itb.stage2_mmu.stage2_tlb.instAccesses            0                       # ITB inst accesses
system.cpu.itb.stage2_mmu.stage2_tlb.hits            0                       # Total TLB (inst and data) hits
system.cpu.itb.stage2_mmu.stage2_tlb.misses            0                       # Total TLB (inst and data) misses
system.cpu.itb.stage2_mmu.stage2_tlb.accesses            0                       # Total TLB (inst and data) accesses
system.cpu.itb.stage2_mmu.stage2_tlb.walker.walks            0                       # Table walker walks requested
system.cpu.itb.stage2_mmu.stage2_tlb.walker.requestOrigin_Requested::Data            0                       # Table walker requests started/completed, data/inst
system.cpu.itb.stage2_mmu.stage2_tlb.walker.requestOrigin_Requested::Inst            0                       # Table walker requests started/completed, data/inst
system.cpu.itb.stage2_mmu.stage2_tlb.walker.requestOrigin_Requested::total            0                       # Table walker requests started/completed, data/inst
system.cpu.itb.stage2_mmu.stage2_tlb.walker.requestOrigin_Completed::Data            0                       # Table walker requests started/completed, data/inst
system.cpu.itb.stage2_mmu.stage2_tlb.walker.requestOrigin_Completed::Inst            0                       # Table walker requests started/completed, data/inst
system.cpu.itb.stage2_mmu.stage2_tlb.walker.requestOrigin_Completed::total            0                       # Table walker requests started/completed, data/inst
system.cpu.itb.stage2_mmu.stage2_tlb.walker.requestOrigin::total            0                       # Table walker requests started/completed, data/inst
system.cpu.itb.stage2_mmu.stage2_tlb.walker.power_state.pwrStateResidencyTicks::UNDEFINED     63755000                       # Cumulative time (in ticks) in various power states
system.cpu.itb.walker.walks                         0                       # Table walker walks requested
system.cpu.itb.walker.requestOrigin_Requested::Data            0                       # Table walker requests started/completed, data/inst
system.cpu.itb.walker.requestOrigin_Requested::Inst            0                       # Table walker requests started/completed, data/inst
system.cpu.itb.walker.requestOrigin_Requested::total            0                       # Table walker requests started/completed, data/inst
system.cpu.itb.walker.requestOrigin_Completed::Data            0                       # Table walker requests started/completed, data/inst
system.cpu.itb.walker.requestOrigin_Completed::Inst            0                       # Table walker requests started/completed, data/inst
system.cpu.itb.walker.requestOrigin_Completed::total            0                       # Table walker requests started/completed, data/inst
system.cpu.itb.walker.requestOrigin::total            0                       # Table walker requests started/completed, data/inst
system.cpu.itb.walker.power_state.pwrStateResidencyTicks::UNDEFINED     63755000                       # Cumulative time (in ticks) in various power states
system.cpu.power_state.pwrStateResidencyTicks::ON     63755000                       # Cumulative time (in ticks) in various power states
system.cpu.thread_0.numInsts                        0                       # Number of Instructions committed
system.cpu.thread_0.numOps                          0                       # Number of Ops committed
system.cpu.thread_0.numMemRefs                      0                       # Number of Memory References
system.cpu_clk_domain.clock                       500                       # Clock period in ticks
system.cpu_voltage_domain.voltage                   1                       # Voltage in Volts
system.mem_ctrls.avgPriority_.writebacks::samples        82.00                       # Average QoS priority value for accepted requests
system.mem_ctrls.avgPriority_.cpu.inst::samples       606.00                       # Average QoS priority value for accepted requests
system.mem_ctrls.avgPriority_.cpu.data::samples       368.00                       # Average QoS priority value for accepted requests
system.mem_ctrls.priorityMinLatency      0.000000022500                       # per QoS priority minimum request to response latency (s)
system.mem_ctrls.priorityMaxLatency      0.000044967000                       # per QoS priority maximum request to response latency (s)
system.mem_ctrls.numReadWriteTurnArounds            4                       # Number of turnarounds from READ to WRITE
system.mem_ctrls.numWriteReadTurnArounds            4                       # Number of turnarounds from WRITE to READ
system.mem_ctrls.numStayReadState                1530                       # Number of times bus staying in READ state
system.mem_ctrls.numStayWriteState                 60                       # Number of times bus staying in WRITE state
system.mem_ctrls.readReqs                         508                       # Number of read requests accepted
system.mem_ctrls.writeReqs                         59                       # Number of write requests accepted
system.mem_ctrls.readBursts                      1016                       # Number of controller read bursts, including those serviced by the write queue
system.mem_ctrls.writeBursts                      118                       # Number of controller write bursts, including those merged in the write queue
system.mem_ctrls.servicedByWrQ                     42                       # Number of controller read bursts serviced by the write queue
system.mem_ctrls.mergedWrBursts                    36                       # Number of controller write bursts merged with an existing one
system.mem_ctrls.neitherReadNorWriteReqs            0                       # Number of requests that are neither read nor write
system.mem_ctrls.avgRdQLen                       2.01                       # Average read queue length when enqueuing
system.mem_ctrls.avgWrQLen                      13.74                       # Average write queue length when enqueuing
system.mem_ctrls.numRdRetry                         0                       # Number of times read queue was full causing retry
system.mem_ctrls.numWrRetry                         0                       # Number of times write queue was full causing retry
system.mem_ctrls.readPktSize::0                     0                       # Read request sizes (log2)
system.mem_ctrls.readPktSize::1                     0                       # Read request sizes (log2)
system.mem_ctrls.readPktSize::2                     0                       # Read request sizes (log2)
system.mem_ctrls.readPktSize::3                     0                       # Read request sizes (log2)
system.mem_ctrls.readPktSize::4                     0                       # Read request sizes (log2)
system.mem_ctrls.readPktSize::5                  1016                       # Read request sizes (log2)
system.mem_ctrls.readPktSize::6                     0                       # Read request sizes (log2)
system.mem_ctrls.writePktSize::0                    0                       # Write request sizes (log2)
system.mem_ctrls.writePktSize::1                    0                       # Write request sizes (log2)
system.mem_ctrls.writePktSize::2                    0                       # Write request sizes (log2)
system.mem_ctrls.writePktSize::3                    0                       # Write request sizes (log2)
system.mem_ctrls.writePktSize::4                    0                       # Write request sizes (log2)
system.mem_ctrls.writePktSize::5                  118                       # Write request sizes (log2)
system.mem_ctrls.writePktSize::6                    0                       # Write request sizes (log2)
system.mem_ctrls.rdQLenPdf::0                     483                       # What read queue length does an incoming req see
system.mem_ctrls.rdQLenPdf::1                     483                       # What read queue length does an incoming req see
system.mem_ctrls.rdQLenPdf::2                       4                       # What read queue length does an incoming req see
system.mem_ctrls.rdQLenPdf::3                       4                       # What read queue length does an incoming req see
system.mem_ctrls.rdQLenPdf::4                       0                       # What read queue length does an incoming req see
system.mem_ctrls.rdQLenPdf::5                       0                       # What read queue length does an incoming req see
system.mem_ctrls.rdQLenPdf::6                       0                       # What read queue length does an incoming req see
system.mem_ctrls.rdQLenPdf::7                       0                       # What read queue length does an incoming req see
system.mem_ctrls.rdQLenPdf::8                       0                       # What read queue length does an incoming req see
system.mem_ctrls.rdQLenPdf::9                       0                       # What read queue length does an incoming req see
system.mem_ctrls.rdQLenPdf::10                      0                       # What read queue length does an incoming req see
system.mem_ctrls.rdQLenPdf::11                      0                       # What read queue length does an incoming req see
system.mem_ctrls.rdQLenPdf::12                      0                       # What read queue length does an incoming req see
system.mem_ctrls.rdQLenPdf::13                      0                       # What read queue length does an incoming req see
system.mem_ctrls.rdQLenPdf::14                      0                       # What read queue length does an incoming req see
system.mem_ctrls.rdQLenPdf::15                      0                       # What read queue length does an incoming req see
system.mem_ctrls.rdQLenPdf::16                      0                       # What read queue length does an incoming req see
system.mem_ctrls.rdQLenPdf::17                      0                       # What read queue length does an incoming req see
system.mem_ctrls.rdQLenPdf::18                      0                       # What read queue length does an incoming req see
system.mem_ctrls.rdQLenPdf::19                      0                       # What read queue length does an incoming req see
system.mem_ctrls.rdQLenPdf::20                      0                       # What read queue length does an incoming req see
system.mem_ctrls.rdQLenPdf::21                      0                       # What read queue length does an incoming req see
system.mem_ctrls.rdQLenPdf::22                      0                       # What read queue length does an incoming req see
system.mem_ctrls.rdQLenPdf::23                      0                       # What read queue length does an incoming req see
system.mem_ctrls.rdQLenPdf::24                      0                       # What read queue length does an incoming req see
system.mem_ctrls.rdQLenPdf::25                      0                       # What read queue length does an incoming req see
system.mem_ctrls.rdQLenPdf::26                      0                       # What read queue length does an incoming req see
system.mem_ctrls.rdQLenPdf::27                      0                       # What read queue length does an incoming req see
system.mem_ctrls.rdQLenPdf::28                      0                       # What read queue length does an incoming req see
system.mem_ctrls.rdQLenPdf::29                      0                       # What read queue length does an incoming req see
system.mem_ctrls.rdQLenPdf::30                      0                       # What read queue length does an incoming req see
system.mem_ctrls.rdQLenPdf::31                      0                       # What read queue length does an incoming req see
system.mem_ctrls.wrQLenPdf::0                       1                       # What write queue length does an incoming req see
system.mem_ctrls.wrQLenPdf::1                       1                       # What write queue length does an incoming req see
system.mem_ctrls.wrQLenPdf::2                       1                       # What write queue length does an incoming req see
system.mem_ctrls.wrQLenPdf::3                       1                       # What write queue length does an incoming req see
system.mem_ctrls.wrQLenPdf::4                       1                       # What write queue length does an incoming req see
system.mem_ctrls.wrQLenPdf::5                       1                       # What write queue length does an incoming req see
system.mem_ctrls.wrQLenPdf::6                       1                       # What write queue length does an incoming req see
system.mem_ctrls.wrQLenPdf::7                       1                       # What write queue length does an incoming req see
system.mem_ctrls.wrQLenPdf::8                       1                       # What write queue length does an incoming req see
system.mem_ctrls.wrQLenPdf::9                       1                       # What write queue length does an incoming req see
system.mem_ctrls.wrQLenPdf::10                      1                       # What write queue length does an incoming req see
system.mem_ctrls.wrQLenPdf::11                      1                       # What write queue length does an incoming req see
system.mem_ctrls.wrQLenPdf::12                      1                       # What write queue length does an incoming req see
system.mem_ctrls.wrQLenPdf::13                      1                       # What write queue length does an incoming req see
system.mem_ctrls.wrQLenPdf::14                      1                       # What write queue length does an incoming req see
system.mem_ctrls.wrQLenPdf::15                      1                       # What write queue length does an incoming req see
system.mem_ctrls.wrQLenPdf::16                      1                       # What write queue length does an incoming req see
system.mem_ctrls.wrQLenPdf::17                      1                       # What write queue length does an incoming req see
system.mem_ctrls.wrQLenPdf::18                      4                       # What write queue length does an incoming req see
system.mem_ctrls.wrQLenPdf::19                      4                       # What write queue length does an incoming req see
system.mem_ctrls.wrQLenPdf::20                      4                       # What write queue length does an incoming req see
system.mem_ctrls.wrQLenPdf::21                      4                       # What write queue length does an incoming req see
system.mem_ctrls.wrQLenPdf::22                      4                       # What write queue length does an incoming req see
system.mem_ctrls.wrQLenPdf::23                      4                       # What write queue length does an incoming req see
system.mem_ctrls.wrQLenPdf::24                      4                       # What write queue length does an incoming req see
system.mem_ctrls.wrQLenPdf::25                      4                       # What write queue length does an incoming req see
system.mem_ctrls.wrQLenPdf::26                      4                       # What write queue length does an incoming req see
system.mem_ctrls.wrQLenPdf::27                      4                       # What write queue length does an incoming req see
system.mem_ctrls.wrQLenPdf::28                      4                       # What write queue length does an incoming req see
system.mem_ctrls.wrQLenPdf::29                      4                       # What write queue length does an incoming req see
system.mem_ctrls.wrQLenPdf::30                      4                       # What write queue length does an incoming req see
system.mem_ctrls.wrQLenPdf::31                      4                       # What write queue length does an incoming req see
system.mem_ctrls.wrQLenPdf::32                      4                       # What write queue length does an incoming req see
system.mem_ctrls.wrQLenPdf::33                      4                       # What write queue length does an incoming req see
system.mem_ctrls.wrQLenPdf::34                      0                       # What write queue length does an incoming req see
system.mem_ctrls.wrQLenPdf::35                      0                       # What write queue length does an incoming req see
system.mem_ctrls.wrQLenPdf::36                      0                       # What write queue length does an incoming req see
system.mem_ctrls.wrQLenPdf::37                      0                       # What write queue length does an incoming req see
system.mem_ctrls.wrQLenPdf::38                      0                       # What write queue length does an incoming req see
system.mem_ctrls.wrQLenPdf::39                      0                       # What write queue length does an incoming req see
system.mem_ctrls.wrQLenPdf::40                      0                       # What write queue length does an incoming req see
system.mem_ctrls.wrQLenPdf::41                      0                       # What write queue length does an incoming req see
system.mem_ctrls.wrQLenPdf::42                      0                       # What write queue length does an incoming req see
system.mem_ctrls.wrQLenPdf::43                      0                       # What write queue length does an incoming req see
system.mem_ctrls.wrQLenPdf::44                      0                       # What write queue length does an incoming req see
system.mem_ctrls.wrQLenPdf::45                      0                       # What write queue length does an incoming req see
system.mem_ctrls.wrQLenPdf::46                      0                       # What write queue length does an incoming req see
system.mem_ctrls.wrQLenPdf::47                      0                       # What write queue length does an incoming req see
system.mem_ctrls.wrQLenPdf::48                      0                       # What write queue length does an incoming req see
system.mem_ctrls.wrQLenPdf::49                      0                       # What write queue length does an incoming req see
system.mem_ctrls.wrQLenPdf::50                      0                       # What write queue length does an incoming req see
system.mem_ctrls.wrQLenPdf::51                      0                       # What write queue length does an incoming req see
system.mem_ctrls.wrQLenPdf::52                      0                       # What write queue length does an incoming req see
system.mem_ctrls.wrQLenPdf::53                      0                       # What write queue length does an incoming req see
system.mem_ctrls.wrQLenPdf::54                      0                       # What write queue length does an incoming req see
system.mem_ctrls.wrQLenPdf::55                      0                       # What write queue length does an incoming req see
system.mem_ctrls.wrQLenPdf::56                      0                       # What write queue length does an incoming req see
system.mem_ctrls.wrQLenPdf::57                      0                       # What write queue length does an incoming req see
system.mem_ctrls.wrQLenPdf::58                      0                       # What write queue length does an incoming req see
system.mem_ctrls.wrQLenPdf::59                      0                       # What write queue length does an incoming req see
system.mem_ctrls.wrQLenPdf::60                      0                       # What write queue length does an incoming req see
system.mem_ctrls.wrQLenPdf::61                      0                       # What write queue length does an incoming req see
system.mem_ctrls.wrQLenPdf::62                      0                       # What write queue length does an incoming req see
system.mem_ctrls.wrQLenPdf::63                      0                       # What write queue length does an incoming req see
system.mem_ctrls.rdPerTurnAround::samples            4                       # Reads before turning the bus around for writes
system.mem_ctrls.rdPerTurnAround::mean            241                       # Reads before turning the bus around for writes
system.mem_ctrls.rdPerTurnAround::gmean    108.918214                       # Reads before turning the bus around for writes
system.mem_ctrls.rdPerTurnAround::stdev    361.236764                       # Reads before turning the bus around for writes
system.mem_ctrls.rdPerTurnAround::32-63             1     25.00%     25.00% # Reads before turning the bus around for writes
system.mem_ctrls.rdPerTurnAround::64-95             2     50.00%     75.00% # Reads before turning the bus around for writes
system.mem_ctrls.rdPerTurnAround::768-799            1     25.00%    100.00% # Reads before turning the bus around for writes
system.mem_ctrls.rdPerTurnAround::total             4                       # Reads before turning the bus around for writes
system.mem_ctrls.wrPerTurnAround::samples            4                       # Writes before turning the bus around for reads
system.mem_ctrls.wrPerTurnAround::mean             16                       # Writes before turning the bus around for reads
system.mem_ctrls.wrPerTurnAround::gmean     16.000000                       # Writes before turning the bus around for reads
system.mem_ctrls.wrPerTurnAround::16                4    100.00%    100.00% # Writes before turning the bus around for reads
system.mem_ctrls.wrPerTurnAround::total             4                       # Writes before turning the bus around for reads
system.mem_ctrls.bytesReadWrQ                    1344                       # Total number of bytes read from write queue
system.mem_ctrls.bytesReadSys                   32512                       # Total read bytes from the system interface side
system.mem_ctrls.bytesWrittenSys                 3776                       # Total written bytes from the system interface side
system.mem_ctrls.avgRdBWSys                    509.95                       # Average system read bandwidth in MiByte/s
system.mem_ctrls.avgWrBWSys                     59.23                       # Average system write bandwidth in MiByte/s
system.mem_ctrls.totGap                      63649500                       # Total gap between requests
system.mem_ctrls.avgGap                     112256.61                       # Average gap between requests
system.mem_ctrls.requestorReadBytes::.cpu.inst        19392                       # Per-requestor bytes read from memory
system.mem_ctrls.requestorReadBytes::.cpu.data        11776                       # Per-requestor bytes read from memory
system.mem_ctrls.requestorWriteBytes::.writebacks         2048                       # Per-requestor bytes write to memory
system.mem_ctrls.requestorReadRate::.cpu.inst 304164379.264371395111                       # Per-requestor bytes read from memory rate (Bytes/sec)
system.mem_ctrls.requestorReadRate::.cpu.data 184707081.797506064177                       # Per-requestor bytes read from memory rate (Bytes/sec)
system.mem_ctrls.requestorWriteRate::.writebacks 32122970.747392360121                       # Per-requestor bytes write to memory rate (Bytes/sec)
system.mem_ctrls.requestorReadAccesses::.cpu.inst          648                       # Per-requestor read serviced memory accesses
system.mem_ctrls.requestorReadAccesses::.cpu.data          368                       # Per-requestor read serviced memory accesses
system.mem_ctrls.requestorWriteAccesses::.writebacks          118                       # Per-requestor write serviced memory accesses
system.mem_ctrls.requestorReadTotalLat::.cpu.inst     24402000                       # Per-requestor read total memory access latency
system.mem_ctrls.requestorReadTotalLat::.cpu.data     15373000                       # Per-requestor read total memory access latency
system.mem_ctrls.requestorWriteTotalLat::.writebacks    771592000                       # Per-requestor write total memory access latency
system.mem_ctrls.requestorReadAvgLat::.cpu.inst     37657.41                       # Per-requestor read average memory access latency
system.mem_ctrls.requestorReadAvgLat::.cpu.data     41774.46                       # Per-requestor read average memory access latency
system.mem_ctrls.requestorWriteAvgLat::.writebacks   6538915.25                       # Per-requestor write average memory access latency
system.mem_ctrls.dram.bytes_read::.cpu.inst        20736                       # Number of bytes read from this memory
system.mem_ctrls.dram.bytes_read::.cpu.data        11776                       # Number of bytes read from this memory
system.mem_ctrls.dram.bytes_read::total         32512                       # Number of bytes read from this memory
system.mem_ctrls.dram.bytes_inst_read::.cpu.inst        20736                       # Number of instructions bytes read from this memory
system.mem_ctrls.dram.bytes_inst_read::total        20736                       # Number of instructions bytes read from this memory
system.mem_ctrls.dram.num_reads::.cpu.inst          324                       # Number of read requests responded to by this memory
system.mem_ctrls.dram.num_reads::.cpu.data          184                       # Number of read requests responded to by this memory
system.mem_ctrls.dram.num_reads::total            508                       # Number of read requests responded to by this memory
system.mem_ctrls.dram.bw_read::.cpu.inst    325245079                       # Total read bandwidth from this memory (bytes/s)
system.mem_ctrls.dram.bw_read::.cpu.data    184707082                       # Total read bandwidth from this memory (bytes/s)
system.mem_ctrls.dram.bw_read::total        509952161                       # Total read bandwidth from this memory (bytes/s)
system.mem_ctrls.dram.bw_inst_read::.cpu.inst    325245079                       # Instruction read bandwidth from this memory (bytes/s)
system.mem_ctrls.dram.bw_inst_read::total    325245079                       # Instruction read bandwidth from this memory (bytes/s)
system.mem_ctrls.dram.bw_total::.cpu.inst    325245079                       # Total bandwidth to/from this memory (bytes/s)
system.mem_ctrls.dram.bw_total::.cpu.data    184707082                       # Total bandwidth to/from this memory (bytes/s)
system.mem_ctrls.dram.bw_total::total       509952161                       # Total bandwidth to/from this memory (bytes/s)
system.mem_ctrls.dram.readBursts                  974                       # Number of DRAM read bursts
system.mem_ctrls.dram.writeBursts                  64                       # Number of DRAM write bursts
system.mem_ctrls.dram.perBankRdBursts::0          134                       # Per bank write bursts
system.mem_ctrls.dram.perBankRdBursts::1          130                       # Per bank write bursts
system.mem_ctrls.dram.perBankRdBursts::2          108                       # Per bank write bursts
system.mem_ctrls.dram.perBankRdBursts::3          124                       # Per bank write bursts
system.mem_ctrls.dram.perBankRdBursts::4          116                       # Per bank write bursts
system.mem_ctrls.dram.perBankRdBursts::5          122                       # Per bank write bursts
system.mem_ctrls.dram.perBankRdBursts::6           90                       # Per bank write bursts
system.mem_ctrls.dram.perBankRdBursts::7          150                       # Per bank write bursts
system.mem_ctrls.dram.perBankWrBursts::0           18                       # Per bank write bursts
system.mem_ctrls.dram.perBankWrBursts::1           18                       # Per bank write bursts
system.mem_ctrls.dram.perBankWrBursts::2            2                       # Per bank write bursts
system.mem_ctrls.dram.perBankWrBursts::3            6                       # Per bank write bursts
system.mem_ctrls.dram.perBankWrBursts::4            4                       # Per bank write bursts
system.mem_ctrls.dram.perBankWrBursts::5            0                       # Per bank write bursts
system.mem_ctrls.dram.perBankWrBursts::6            0                       # Per bank write bursts
system.mem_ctrls.dram.perBankWrBursts::7           16                       # Per bank write bursts
system.mem_ctrls.dram.totQLat                17860000                       # Total ticks spent queuing
system.mem_ctrls.dram.totBusLat               7305000                       # Total ticks spent in databus transfers
system.mem_ctrls.dram.totMemAccLat           39775000                       # Total ticks spent from burst creation until serviced by the DRAM
system.mem_ctrls.dram.avgQLat                18336.76                       # Average queueing delay per DRAM burst
system.mem_ctrls.dram.avgBusLat               7500.00                       # Average bus latency per DRAM burst
system.mem_ctrls.dram.avgMemAccLat           40836.76                       # Average memory access latency per DRAM burst
system.mem_ctrls.dram.readRowHits                 736                       # Number of row buffer hits during reads
system.mem_ctrls.dram.writeRowHits                 46                       # Number of row buffer hits during writes
system.mem_ctrls.dram.readRowHitRate            75.56                       # Row buffer hit rate for reads
system.mem_ctrls.dram.writeRowHitRate           71.88                       # Row buffer hit rate for writes
system.mem_ctrls.dram.bytesPerActivate::samples          249                       # Bytes accessed per row activation
system.mem_ctrls.dram.bytesPerActivate::mean   130.313253                       # Bytes accessed per row activation
system.mem_ctrls.dram.bytesPerActivate::gmean   106.108947                       # Bytes accessed per row activation
system.mem_ctrls.dram.bytesPerActivate::stdev   101.695536                       # Bytes accessed per row activation
system.mem_ctrls.dram.bytesPerActivate::0-63            1      0.40%      0.40% # Bytes accessed per row activation
system.mem_ctrls.dram.bytesPerActivate::64-127          123     49.40%     49.80% # Bytes accessed per row activation
system.mem_ctrls.dram.bytesPerActivate::128-191           69     27.71%     77.51% # Bytes accessed per row activation
system.mem_ctrls.dram.bytesPerActivate::192-255           28     11.24%     88.76% # Bytes accessed per row activation
system.mem_ctrls.dram.bytesPerActivate::256-319           11      4.42%     93.17% # Bytes accessed per row activation
system.mem_ctrls.dram.bytesPerActivate::320-383            3      1.20%     94.38% # Bytes accessed per row activation
system.mem_ctrls.dram.bytesPerActivate::384-447            4      1.61%     95.98% # Bytes accessed per row activation
system.mem_ctrls.dram.bytesPerActivate::448-511            2      0.80%     96.79% # Bytes accessed per row activation
system.mem_ctrls.dram.bytesPerActivate::512-575            8      3.21%    100.00% # Bytes accessed per row activation
system.mem_ctrls.dram.bytesPerActivate::total          249                       # Bytes accessed per row activation
system.mem_ctrls.dram.bytesRead                 31168                       # Total number of bytes read from DRAM
system.mem_ctrls.dram.bytesWritten               2048                       # Total number of bytes written to DRAM
system.mem_ctrls.dram.avgRdBW              488.871461                       # Average DRAM read bandwidth in MiBytes/s
system.mem_ctrls.dram.avgWrBW               32.122971                       # Average DRAM write bandwidth in MiBytes/s
system.mem_ctrls.dram.peakBW                  4266.00                       # Theoretical peak bandwidth in MiByte/s
system.mem_ctrls.dram.busUtil                   12.21                       # Data bus utilization in percentage
system.mem_ctrls.dram.busUtilRead               11.46                       # Data bus utilization in percentage for reads
system.mem_ctrls.dram.busUtilWrite               0.75                       # Data bus utilization in percentage for writes
system.mem_ctrls.dram.pageHitRate               75.34                       # Row buffer hit rate, read and write combined
system.mem_ctrls.dram.power_state.pwrStateResidencyTicks::UNDEFINED     63755000                       # Cumulative time (in ticks) in various power states
system.mem_ctrls.dram.rank0.actEnergy    778735.104000                       # Energy for activate commands per rank (pJ)
system.mem_ctrls.dram.rank0.preEnergy    266821.228800                       # Energy for precharge commands per rank (pJ)
system.mem_ctrls.dram.rank0.readEnergy   1673006.294400                       # Energy for read commands per rank (pJ)
system.mem_ctrls.dram.rank0.writeEnergy  98692.608000                       # Energy for write commands per rank (pJ)
system.mem_ctrls.dram.rank0.refreshEnergy 444386.880000                       # Energy for refresh commands per rank (pJ)
system.mem_ctrls.dram.rank0.actBackEnergy 2457508.410000                       # Energy for active background per rank (pJ)
system.mem_ctrls.dram.rank0.preBackEnergy 121834.944000                       # Energy for precharge background per rank (pJ)
system.mem_ctrls.dram.rank0.actPowerDownEnergy            0                       # Energy for active power-down per rank (pJ)
system.mem_ctrls.dram.rank0.prePowerDownEnergy            0                       # Energy for precharge power-down per rank (pJ)
system.mem_ctrls.dram.rank0.selfRefreshEnergy            0                       # Energy for self refresh per rank (pJ)
system.mem_ctrls.dram.rank0.totalEnergy  5840985.469200                       # Total energy per rank (pJ)
system.mem_ctrls.dram.rank0.averagePower    91.616116                       # Core power per rank (mW)
system.mem_ctrls.dram.rank0.totalIdleTime            0                       # Total Idle time Per DRAM Rank
system.mem_ctrls.dram.rank0.pwrStateTime::IDLE      2614000                       # Time in different power states
system.mem_ctrls.dram.rank0.pwrStateTime::REF      2080000                       # Time in different power states
system.mem_ctrls.dram.rank0.pwrStateTime::SREF            0                       # Time in different power states
system.mem_ctrls.dram.rank0.pwrStateTime::PRE_PDN            0                       # Time in different power states
system.mem_ctrls.dram.rank0.pwrStateTime::ACT     59061000                       # Time in different power states
system.mem_ctrls.dram.rank0.pwrStateTime::ACT_PDN            0                       # Time in different power states
system.mem_ctrls.power_state.pwrStateResidencyTicks::UNDEFINED     63755000                       # Cumulative time (in ticks) in various power states
system.membus.trans_dist::ReadResp                437                       # Transaction distribution
system.membus.trans_dist::WritebackClean           60                       # Transaction distribution
system.membus.trans_dist::ReadExReq                71                       # Transaction distribution
system.membus.trans_dist::ReadExResp               71                       # Transaction distribution
system.membus.trans_dist::ReadCleanReq            324                       # Transaction distribution
system.membus.trans_dist::ReadSharedReq           113                       # Transaction distribution
system.membus.pkt_count_system.cpu.icache.mem_side_port::system.mem_ctrls.port          708                       # Packet count per connected requestor and responder (bytes)
system.membus.pkt_count_system.cpu.dcache.mem_side_port::system.mem_ctrls.port          368                       # Packet count per connected requestor and responder (bytes)
system.membus.pkt_count::total                   1076                       # Packet count per connected requestor and responder (bytes)
system.membus.pkt_size_system.cpu.icache.mem_side_port::system.mem_ctrls.port        24576                       # Cumulative packet size per connected requestor and responder (bytes)
system.membus.pkt_size_system.cpu.dcache.mem_side_port::system.mem_ctrls.port        11776                       # Cumulative packet size per connected requestor and responder (bytes)
system.membus.pkt_size::total                   36352                       # Cumulative packet size per connected requestor and responder (bytes)
system.membus.snoops                                0                       # Total snoops (count)
system.membus.snoopTraffic                          0                       # Total snoop traffic (bytes)
system.membus.snoop_fanout::samples               508                       # Request fanout histogram
system.membus.snoop_fanout::mean             0.029528                       # Request fanout histogram
system.membus.snoop_fanout::stdev            0.169447                       # Request fanout histogram
system.membus.snoop_fanout::underflows              0      0.00%      0.00% # Request fanout histogram
system.membus.snoop_fanout::0                     493     97.05%     97.05% # Request fanout histogram
system.membus.snoop_fanout::1                      15      2.95%    100.00% # Request fanout histogram
system.membus.snoop_fanout::2                       0      0.00%    100.00% # Request fanout histogram
system.membus.snoop_fanout::overflows               0      0.00%    100.00% # Request fanout histogram
system.membus.snoop_fanout::min_value               0                       # Request fanout histogram
system.membus.snoop_fanout::max_value               1                       # Request fanout histogram
system.membus.snoop_fanout::total                 508                       # Request fanout histogram
system.membus.power_state.pwrStateResidencyTicks::UNDEFINED     63755000                       # Cumulative time (in ticks) in various power states
system.membus.reqLayer0.occupancy              816000                       # Layer occupancy (ticks)
system.membus.reqLayer0.utilization               1.3                       # Layer utilization (%)
system.membus.respLayer1.occupancy            1622000                       # Layer occupancy (ticks)
system.membus.respLayer1.utilization              2.5                       # Layer utilization (%)
system.membus.respLayer2.occupancy             920500                       # Layer occupancy (ticks)
system.membus.respLayer2.utilization              1.4                       # Layer utilization (%)
system.voltage_domain.voltage                       1                       # Voltage in Volts

---------- End Simulation Statistics   ----------
